Circuit: * C:\users\leonardo\Desktop\FSAE\inverter-simulation\inverter-spice.asc

Direct Newton iteration failed to find .op point.  (Use ".option noopiter" to skip.)
Starting Gmin stepping
Gmin = 10
Gmin = 1.07374
Gmin = 0.115292
Gmin = 0.0123794
Gmin = 0.00132923
Gmin = 0.000142725
Gmin = 1.5325e-005
Gmin = 1.6455e-006
Gmin = 1.76685e-007
Gmin = 1.89714e-008
Gmin = 2.03704e-009
vernier = 0.5
Gmin = 5.7877e-010
vernier = 0.25
vernier = 0.125
Gmin = 4.79972e-010
vernier = 0.166667
vernier = 0.0833333
vernier = 0.0416667
Gmin = 3.872e-010
vernier = 0.0208333
vernier = 0.0104167
vernier = 0.00520833
Gmin = 3.87184e-010
vernier = 0.00260417
vernier = 0.00130208
vernier = 0.000651042
vernier = 0.000488281
Gmin = 3.87136e-010
Gmin = 0
Gmin stepping succeeded in finding the operating point.

Changing Tseed to 1.95313e-010
Changing Tseed to 1.95312e-012
Changing Tseed to 1.95312e-009
Changing Tseed to 1.95313e-013
Changing Tseed to 1.95312e-008
Changing Tseed to 1.95312e-014
Changing Tseed to 1.95312e-007
Changing Tseed to 1.95312e-015
Heightened Def Con from 1.95894e-015 to 3.62912e-014
Heightened Def Con from 3.62912e-014 to 4.05827e-014
Heightened Def Con from 4.15364e-014 to 1.02573e-013
Heightened Def Con from 1.02573e-013 to 1.02574e-013
Heightened Def Con from 1.02574e-013 to 1.02581e-013
Heightened Def Con from 1.02581e-013 to 1.1021e-013
Heightened Def Con from 1.10255e-013 to 3.54872e-013
Heightened Def Con from 3.54879e-013 to 4.16391e-013
Heightened Def Con from 4.16517e-013 to 4.50849e-013
Heightened Def Con from 4.58479e-013 to 4.62294e-013
Heightened Def Con from 4.68179e-013 to 4.72054e-013
Heightened Def Con from 4.7207e-013 to 5.06403e-013
Heightened Def Con from 5.14032e-013 to 5.48364e-013
Heightened Def Con from 5.57961e-013 to 6.49513e-013
Heightened Def Con from 6.53237e-013 to 8.97855e-013
Heightened Def Con from 9.00798e-013 +to 9.96166e-013
Heightened Def Con from 1.07628e-012 +to 1.0882e-012
Heightened Def Con from 1.09941e-012 to 1.09988e-012
Heightened Def Con from 1.10007e-012 to 1.13441e-012
Heightened Def Con from 1.13442e-012 +to 1.17257e-012
Heightened Def Con from 1.17267e-012 to 1.1803e-012
Heightened Def Con from 1.1803e-012 to 1.21463e-012
Heightened Def Con from 1.21464e-012 +to 1.21894e-012
Heightened Def Con from 1.21894e-012 to 1.22663e-012
Heightened Def Con from 1.22692e-012 ++to 1.24217e-012
Heightened Def Con from 1.24217e-012 to 1.27651e-012
Heightened Def Con from 1.29449e-012 +to 1.0013e-009
Heightened Def Con from 1.00131e-009 to 1.00131e-009
Heightened Def Con from 1.00131e-009 to 1.00132e-009
Heightened Def Con from 1.00132e-009 to 1.0033e-009
Heightened Def Con from 1.0034e-009 to 1.00341e-009
Heightened Def Con from 1.00341e-009 to 1.00344e-009
Heightened Def Con from 1.00353e-009 to 1.00357e-009
Heightened Def Con from 1.00373e-009 to 1.00422e-009
Heightened Def Con from 1.00431e-009 to 1.00437e-009
Heightened Def Con from 1.00437e-009 to 1.00444e-009
Heightened Def Con from 1.00447e-009 to 1.00447e-009
Heightened Def Con from 1.00447e-009 to 1.00453e-009
Heightened Def Con from 1.00462e-009 to 1.00462e-009
Heightened Def Con from 1.00462e-009 to 1.00468e-009
Heightened Def Con from 1.00469e-009 to 1.00475e-009
Heightened Def Con from 1.00475e-009 to 1.00475e-009
Heightened Def Con from 1.00475e-009 +to 1.00503e-009
Heightened Def Con from 1.00503e-009 to 1.00504e-009
Heightened Def Con from 1.00505e-009 to 2.00505e-009
Heightened Def Con from 2.00505e-009 to 2.00506e-009
Heightened Def Con from 2.00506e-009 to 2.00506e-009
Heightened Def Con from 2.00506e-009 ++to 2.00727e-009
Heightened Def Con from 2.00731e-009 to 2.00926e-009
Heightened Def Con from 2.00948e-009 to 2.00948e-009
Heightened Def Con from 2.00948e-009 to 2.00958e-009
Heightened Def Con from 2.00958e-009 to 2.00959e-009
Heightened Def Con from 2.00967e-009 +to 2.00979e-009
Heightened Def Con from 2.00996e-009 to 2.01002e-009
Heightened Def Con from 2.01002e-009 to 2.01003e-009
Heightened Def Con from 2.01003e-009 to 2.01198e-009
Heightened Def Con from 2.01198e-009 to 2.01198e-009
Heightened Def Con from 2.01198e-009 ++to 2.01205e-009
Heightened Def Con from 2.01205e-009 to 2.01235e-009
Heightened Def Con from 2.01235e-009 to 2.01244e-009
Heightened Def Con from 2.01254e-009 to 2.01449e-009
Heightened Def Con from 2.01449e-009 to 2.01452e-009
Heightened Def Con from 2.01474e-009 to 2.0148e-009
Heightened Def Con from 2.0148e-009 to 2.01483e-009
Heightened Def Con from 2.015e-009 to 2.01501e-009
Heightened Def Con from 2.01501e-009 to 2.01504e-009
Heightened Def Con from 2.01504e-009 +to 2.01511e-009
Heightened Def Con from 2.01511e-009 +to 2.01512e-009
Heightened Def Con from 2.01528e-009 to 2.01528e-009
Heightened Def Con from 2.01528e-009 +to 2.01553e-009
Heightened Def Con from 2.01555e-009 +to 2.01561e-009
Heightened Def Con from 2.01561e-009 to 2.14062e-009
Heightened Def Con from 2.14063e-009 to 2.1409e-009
Heightened Def Con from 2.14096e-009 to 2.14096e-009
Heightened Def Con from 2.14096e-009 to 2.14121e-009
Heightened Def Con from 2.14121e-009 to 2.14124e-009
Heightened Def Con from 2.14124e-009 to 2.14149e-009
Heightened Def Con from 2.14149e-009 +to 2.14149e-009
Heightened Def Con from 2.14149e-009 to 2.14155e-009
Heightened Def Con from 2.14155e-009 to 2.14156e-009
Heightened Def Con from 2.14156e-009 to 2.14159e-009
Heightened Def Con from 2.14171e-009 to 2.14172e-009
Heightened Def Con from 2.14174e-009 to 2.14175e-009
Heightened Def Con from 2.14175e-009 to 2.14175e-009
Heightened Def Con from 2.14175e-009 to 2.14176e-009
Heightened Def Con from 2.14176e-009 +to 2.14179e-009
Heightened Def Con from 2.14179e-009 to 2.14183e-009
Heightened Def Con from 2.14183e-009 +to 2.14186e-009
Heightened Def Con from 2.14191e-009 to 2.14191e-009
Heightened Def Con from 2.14195e-009 to 2.14195e-009
Heightened Def Con from 2.14196e-009 +to 2.14199e-009
Heightened Def Con from 2.14219e-009 to 2.14219e-009
Heightened Def Con from 2.14236e-009 to 2.14261e-009
Heightened Def Con from 2.14263e-009 to 2.14264e-009
Heightened Def Con from 2.14266e-009 to 2.14266e-009
Heightened Def Con from 2.14266e-009 to 2.1427e-009
Heightened Def Con from 2.1427e-009 to 2.15832e-009
Heightened Def Con from 2.15832e-009 to 2.15832e-009
Heightened Def Con from 2.15832e-009 to 2.15832e-009
Heightened Def Con from 2.15832e-009 to 2.15857e-009
Heightened Def Con from 2.1586e-009 to 2.15863e-009
Heightened Def Con from 2.15864e-009 to 2.15864e-009
Heightened Def Con from 2.15864e-009 to 2.15873e-009
Heightened Def Con from 2.15891e-009 to 2.15891e-009
Heightened Def Con from 2.15891e-009 to 2.15894e-009
Heightened Def Con from 2.15894e-009 to 2.15898e-009
Heightened Def Con from 2.159e-009 to 2.15903e-009
Heightened Def Con from 2.15903e-009 to 2.15904e-009
Heightened Def Con from 2.15905e-009 to 2.15905e-009
Heightened Def Con from 2.1591e-009 to 2.15911e-009
Heightened Def Con from 2.15911e-009 to 2.15917e-009
Heightened Def Con from 2.15918e-009 to 2.15918e-009
Heightened Def Con from 2.15918e-009 to 2.15918e-009
Heightened Def Con from 2.15918e-009 to 2.15921e-009
Heightened Def Con from 2.15922e-009 +to 2.15924e-009
Heightened Def Con from 2.15929e-009 to 2.15932e-009
Heightened Def Con from 2.15932e-009 to 2.15938e-009
Heightened Def Con from 2.15943e-009 to 2.15944e-009
Heightened Def Con from 2.15949e-009 to 2.1595e-009
Heightened Def Con from 2.1595e-009 to 2.1595e-009
Heightened Def Con from 2.15951e-009 to 2.15951e-009
Heightened Def Con from 2.15951e-009 to 2.15954e-009
Heightened Def Con from 2.15954e-009 to 2.15955e-009
Heightened Def Con from 2.15978e-009 to 2.15979e-009
Heightened Def Con from 2.15979e-009 to 2.15979e-009
Heightened Def Con from 2.15979e-009 to 2.15983e-009
Heightened Def Con from 2.15988e-009 +to 2.15992e-009
Heightened Def Con from 2.15992e-009 to 2.15993e-009
Heightened Def Con from 2.15995e-009 to 2.16002e-009
Heightened Def Con from 2.16009e-009 to 2.16009e-009
Heightened Def Con from 2.16013e-009 to 2.16016e-009
Heightened Def Con from 2.16016e-009 to 2.16019e-009
Heightened Def Con from 2.16026e-009 to 2.16026e-009
Heightened Def Con from 2.16031e-009 to 2.16031e-009
Heightened Def Con from 2.16031e-009 +to 2.16034e-009
Heightened Def Con from 2.16034e-009 to 2.16034e-009
Heightened Def Con from 2.1604e-009 to 2.16041e-009
Heightened Def Con from 2.16042e-009 +to 2.16048e-009
Heightened Def Con from 2.16048e-009 to 2.16048e-009
Heightened Def Con from 2.16048e-009 +to 2.16051e-009
Heightened Def Con from 2.16053e-009 to 2.1608e-009
Heightened Def Con from 2.16087e-009 +to 2.16087e-009
Heightened Def Con from 2.16088e-009 to 2.16088e-009
Heightened Def Con from 2.16088e-009 to 2.16089e-009
Heightened Def Con from 2.16089e-009 to 2.16092e-009
Heightened Def Con from 2.16092e-009 to 2.16092e-009
Heightened Def Con from 2.16092e-009 to 2.16092e-009
Heightened Def Con from 2.16092e-009 to 2.16092e-009
Heightened Def Con from 2.16093e-009 to 2.16096e-009
Heightened Def Con from 2.16096e-009 +to 2.16096e-009
Heightened Def Con from 2.16096e-009 to 2.16121e-009
Heightened Def Con from 2.16121e-009 to 2.16121e-009
Heightened Def Con from 2.16122e-009 to 2.16125e-009
Heightened Def Con from 2.16126e-009 to 2.16126e-009
Heightened Def Con from 2.16126e-009 +to 2.16129e-009
Heightened Def Con from 2.16138e-009 to 2.16138e-009
Heightened Def Con from 2.16138e-009 to 2.16139e-009
Heightened Def Con from 2.16139e-009 +to 2.1614e-009
Heightened Def Con from 2.16153e-009 to 2.16156e-009
Heightened Def Con from 2.16158e-009 to 2.16159e-009
Heightened Def Con from 2.16159e-009 to 2.1616e-009
Heightened Def Con from 2.16161e-009 to 2.16161e-009
Heightened Def Con from 2.16162e-009 to 2.16163e-009
Heightened Def Con from 2.16169e-009 to 2.16175e-009
Heightened Def Con from 2.16182e-009 to 2.16183e-009
Heightened Def Con from 2.16189e-009 to 2.16214e-009
Heightened Def Con from 2.16214e-009 to 2.16214e-009
Heightened Def Con from 2.16214e-009 +to 2.28714e-009
Heightened Def Con from 2.28715e-009 to 2.28716e-009
Heightened Def Con from 2.28716e-009 to 2.28717e-009
Heightened Def Con from 2.28719e-009 to 2.28719e-009
Heightened Def Con from 2.28719e-009 to 2.28768e-009
Heightened Def Con from 2.2877e-009 to 2.28771e-009
Heightened Def Con from 2.28774e-009 to 2.28777e-009
Heightened Def Con from 2.28777e-009 +to 2.28784e-009
Heightened Def Con from 2.28798e-009 to 2.28826e-009
Heightened Def Con from 2.28843e-009 to 2.28844e-009
Heightened Def Con from 2.28849e-009 to 2.28858e-009
Heightened Def Con from 2.28858e-009 to 2.28861e-009
Heightened Def Con from 2.28861e-009 to 2.28865e-009
Heightened Def Con from 2.28865e-009 to 2.28871e-009
Heightened Def Con from 2.28883e-009 to 2.28887e-009
Heightened Def Con from 2.28888e-009 to 2.28894e-009
Heightened Def Con from 2.28904e-009 to 2.28929e-009
Heightened Def Con from 2.2893e-009 to 2.28931e-009
Heightened Def Con from 2.28941e-009 to 2.28942e-009
Heightened Def Con from 2.28942e-009 to 2.28945e-009
Heightened Def Con from 2.28946e-009 to 2.28952e-009
Heightened Def Con from 2.28956e-009 to 2.28959e-009
Heightened Def Con from 2.28962e-009 to 2.28968e-009
Heightened Def Con from 2.28972e-009 to 2.28978e-009
Heightened Def Con from 2.2898e-009 to 2.28983e-009
Heightened Def Con from 2.28985e-009 to 2.28989e-009
Heightened Def Con from 2.2899e-009 +to 2.29015e-009
Heightened Def Con from 2.29029e-009 +to 2.2903e-009
Heightened Def Con from 2.2903e-009 to 2.2903e-009
Heightened Def Con from 2.2903e-009 to 2.2903e-009
Heightened Def Con from 2.2903e-009 to 2.2903e-009
Heightened Def Con from 2.2903e-009 to 2.2903e-009
Heightened Def Con from 2.29042e-009 to 2.29043e-009
Heightened Def Con from 2.29045e-009 to 2.29046e-009
Heightened Def Con from 2.29061e-009 to 2.29067e-009
Heightened Def Con from 2.29067e-009 to 2.29068e-009
Heightened Def Con from 2.29091e-009 to 2.29094e-009
Heightened Def Con from 2.29098e-009 to 2.29098e-009
Heightened Def Con from 2.291e-009 to 2.29103e-009
Heightened Def Con from 2.29115e-009 to 2.29121e-009
Heightened Def Con from 2.29122e-009 to 2.29125e-009
Heightened Def Con from 2.29129e-009 to 2.29132e-009
Heightened Def Con from 2.29142e-009 to 2.29142e-009
Heightened Def Con from 2.29147e-009 to 2.29147e-009
Heightened Def Con from 2.29156e-009 to 2.2916e-009
Heightened Def Con from 2.2916e-009 to 2.29166e-009
Heightened Def Con from 2.29172e-009 +to 2.29175e-009
Heightened Def Con from 2.29195e-009 to 2.29199e-009
Heightened Def Con from 2.292e-009 to 2.292e-009
Heightened Def Con from 2.29201e-009 to 2.29201e-009
Heightened Def Con from 2.29201e-009 to 2.29205e-009
Heightened Def Con from 2.29211e-009 to 2.29217e-009
Heightened Def Con from 2.29223e-009 to 2.29223e-009
Heightened Def Con from 2.29225e-009 to 2.29226e-009
Heightened Def Con from 2.29229e-009 to 2.29229e-009
Heightened Def Con from 2.29229e-009 to 2.29235e-009
Heightened Def Con from 2.29238e-009 to 2.29239e-009
Heightened Def Con from 2.29239e-009 to 2.29239e-009
Heightened Def Con from 2.29242e-009 to 2.29249e-009
Heightened Def Con from 2.29254e-009 to 2.29281e-009
Heightened Def Con from 2.29283e-009 to 2.2929e-009
Heightened Def Con from 2.29297e-009 +to 2.293e-009
Heightened Def Con from 2.29306e-009 to 2.29306e-009
Heightened Def Con from 2.29306e-009 to 2.29306e-009
Heightened Def Con from 2.29307e-009 to 2.29307e-009
Heightened Def Con from 2.29307e-009 to 2.29307e-009
Heightened Def Con from 2.29313e-009 to 2.29314e-009
Heightened Def Con from 2.29314e-009 to 2.29314e-009
Heightened Def Con from 2.29314e-009 to 2.29317e-009
Heightened Def Con from 2.29318e-009 +to 2.29321e-009
Heightened Def Con from 2.29324e-009 to 2.29324e-009
Heightened Def Con from 2.29325e-009 to 2.29326e-009
Heightened Def Con from 2.29327e-009 to 2.29328e-009
Heightened Def Con from 2.29329e-009 to 2.29332e-009
Heightened Def Con from 2.29335e-009 to 2.29338e-009
Heightened Def Con from 2.29338e-009 to 2.29344e-009
Heightened Def Con from 2.29348e-009 to 2.29354e-009
Heightened Def Con from 2.29364e-009 to 2.29364e-009
Heightened Def Con from 2.29364e-009 to 2.29364e-009
Heightened Def Con from 2.29365e-009 to 2.29366e-009
Heightened Def Con from 2.29368e-009 ++to 2.29372e-009
Heightened Def Con from 2.29375e-009 to 2.29379e-009
Heightened Def Con from 2.29381e-009 to 2.29406e-009
Heightened Def Con from 2.2941e-009 to 2.2941e-009
Heightened Def Con from 2.2941e-009 to 2.2941e-009
Heightened Def Con from 2.2941e-009 to 2.29416e-009
Heightened Def Con from 2.29419e-009 to 2.29425e-009
Heightened Def Con from 2.29425e-009 to 2.29425e-009
Heightened Def Con from 2.29426e-009 to 2.29426e-009
Heightened Def Con from 2.29426e-009 to 2.29432e-009
Heightened Def Con from 2.29434e-009 to 2.29435e-009
Heightened Def Con from 2.29435e-009 to 2.29439e-009
Heightened Def Con from 2.29441e-009 to 2.29441e-009
Heightened Def Con from 2.29442e-009 to 2.29448e-009
Heightened Def Con from 2.29448e-009 to 2.29448e-009
Heightened Def Con from 2.29448e-009 to 2.29454e-009
Heightened Def Con from 2.29455e-009 to 2.29455e-009
Heightened Def Con from 2.29455e-009 to 2.29456e-009
Heightened Def Con from 2.29461e-009 to 2.29461e-009
Heightened Def Con from 2.29461e-009 to 2.29462e-009
Heightened Def Con from 2.29466e-009 to 2.29472e-009
Heightened Def Con from 2.2948e-009 to 2.2948e-009
Heightened Def Con from 2.29483e-009 to 2.29489e-009
Heightened Def Con from 2.2949e-009 to 2.29496e-009
Heightened Def Con from 2.29503e-009 to 2.29504e-009
Heightened Def Con from 2.29505e-009 to 2.29506e-009
Heightened Def Con from 2.29506e-009 to 2.29509e-009
Heightened Def Con from 2.29515e-009 +to 2.29518e-009
Heightened Def Con from 2.2952e-009 to 2.2952e-009
Heightened Def Con from 2.2952e-009 to 2.2952e-009
Heightened Def Con from 2.2952e-009 to 2.4202e-009
Heightened Def Con from 2.42031e-009 to 2.42035e-009
Heightened Def Con from 2.4204e-009 to 2.42044e-009
Heightened Def Con from 2.42044e-009 to 2.42044e-009
Heightened Def Con from 2.42044e-009 to 2.42045e-009
Heightened Def Con from 2.42045e-009 to 2.42046e-009
Heightened Def Con from 2.42046e-009 +to 2.42048e-009
Heightened Def Con from 2.42048e-009 to 2.42048e-009
Heightened Def Con from 2.42048e-009 to 2.42048e-009
Heightened Def Con from 2.42067e-009 to 2.42071e-009
Heightened Def Con from 2.42116e-009 to 2.42116e-009
Heightened Def Con from 2.4212e-009 to 2.4212e-009
Heightened Def Con from 2.42123e-009 to 2.42126e-009
Heightened Def Con from 2.42138e-009 to 2.42138e-009
Heightened Def Con from 2.42145e-009 +to 2.42145e-009
Heightened Def Con from 2.42145e-009 to 2.42146e-009
Heightened Def Con from 2.42147e-009 to 2.42175e-009
Heightened Def Con from 2.42194e-009 to 2.422e-009
Heightened Def Con from 2.42201e-009 to 2.42207e-009
Heightened Def Con from 2.42207e-009 to 2.42213e-009
Heightened Def Con from 2.42213e-009 to 2.42214e-009
Heightened Def Con from 2.42214e-009 to 2.4222e-009
Heightened Def Con from 2.42226e-009 +to 2.42226e-009
Heightened Def Con from 2.42228e-009 to 2.42228e-009
Heightened Def Con from 2.42233e-009 to 2.54733e-009
Heightened Def Con from 2.54734e-009 to 2.54734e-009
Heightened Def Con from 2.54734e-009 to 2.54734e-009
Heightened Def Con from 2.54734e-009 +to 2.54735e-009
Heightened Def Con from 2.54736e-009 to 2.54736e-009
Heightened Def Con from 2.54736e-009 to 2.54737e-009
Heightened Def Con from 2.54755e-009 to 2.54758e-009
Heightened Def Con from 2.54759e-009 to 2.54787e-009
Heightened Def Con from 2.54787e-009 to 2.54787e-009
Heightened Def Con from 2.54787e-009 to 2.54812e-009
Heightened Def Con from 2.54814e-009 to 2.54817e-009
Heightened Def Con from 2.54827e-009 to 2.54834e-009
Heightened Def Con from 2.54834e-009 +to 2.54834e-009
Heightened Def Con from 2.54838e-009 to 2.54838e-009
Heightened Def Con from 2.54838e-009 to 2.54841e-009
Heightened Def Con from 2.54847e-009 to 2.54847e-009
Heightened Def Con from 2.54848e-009 to 2.54849e-009
Heightened Def Con from 2.54849e-009 to 2.5485e-009
Heightened Def Con from 2.5485e-009 to 2.54856e-009
Heightened Def Con from 2.54858e-009 to 2.54859e-009
Heightened Def Con from 2.54861e-009 to 2.54861e-009
Heightened Def Con from 2.54861e-009 to 2.54861e-009
Heightened Def Con from 2.54861e-009 to 2.55057e-009
Heightened Def Con from 2.55057e-009 to 2.5506e-009
Heightened Def Con from 2.5506e-009 to 2.55061e-009
Heightened Def Con from 2.55061e-009 +to 2.55062e-009
Heightened Def Con from 2.55067e-009 to 2.55073e-009
Heightened Def Con from 2.55073e-009 to 2.55073e-009
Heightened Def Con from 2.55073e-009 +to 2.5508e-009
Heightened Def Con from 2.55088e-009 +to 2.55089e-009
Heightened Def Con from 2.55089e-009 +to 2.55096e-009
Heightened Def Con from 2.55103e-009 to 2.55103e-009
Heightened Def Con from 2.55103e-009 to 2.55106e-009
Heightened Def Con from 2.55111e-009 to 2.55111e-009
Heightened Def Con from 2.55111e-009 to 2.55111e-009
Heightened Def Con from 2.55111e-009 to 2.55111e-009
Heightened Def Con from 2.55111e-009 to 2.55111e-009
Heightened Def Con from 2.55111e-009 to 2.67611e-009
Heightened Def Con from 2.67612e-009 to 2.67612e-009
Heightened Def Con from 2.67612e-009 to 2.67613e-009
Heightened Def Con from 2.67613e-009 to 2.67614e-009
Heightened Def Con from 2.67614e-009 to 2.67623e-009
Heightened Def Con from 2.67629e-009 to 3.67632e-009
Heightened Def Con from 3.67632e-009 +to 3.67633e-009
Heightened Def Con from 3.67634e-009 to 3.67637e-009
Heightened Def Con from 3.67638e-009 +to 3.6764e-009
Heightened Def Con from 3.67641e-009 to 3.67647e-009
Heightened Def Con from 3.67648e-009 to 3.67651e-009
Heightened Def Con from 3.67652e-009 to 3.6768e-009
Heightened Def Con from 3.67681e-009 to 3.67682e-009
Heightened Def Con from 3.67682e-009 to 3.67685e-009
Heightened Def Con from 3.67691e-009 to 3.67692e-009
Heightened Def Con from 3.67693e-009 to 3.67693e-009
Heightened Def Con from 3.67694e-009 to 3.67697e-009
Heightened Def Con from 3.67712e-009 to 3.67712e-009
Heightened Def Con from 3.67712e-009 to 3.67713e-009
Heightened Def Con from 3.67714e-009 to 3.67718e-009
Heightened Def Con from 3.6776e-009 to 3.67761e-009
Heightened Def Con from 3.67761e-009 to 3.67761e-009
Heightened Def Con from 3.67761e-009 to 3.67764e-009
Heightened Def Con from 3.67764e-009 to 3.67765e-009
Heightened Def Con from 3.67769e-009 to 3.67773e-009
Heightened Def Con from 3.67773e-009 to 3.67776e-009
Heightened Def Con from 3.67777e-009 to 3.67973e-009
Heightened Def Con from 3.67977e-009 to 3.67977e-009
Heightened Def Con from 3.67978e-009 to 3.67981e-009
Heightened Def Con from 3.67981e-009 to 3.67981e-009
Heightened Def Con from 3.67981e-009 to 3.67981e-009
Heightened Def Con from 3.67994e-009 to 3.67994e-009
Heightened Def Con from 3.67994e-009 to 3.67994e-009
Heightened Def Con from 3.67994e-009 to 3.67994e-009
Heightened Def Con from 3.67994e-009 to 3.67994e-009
Heightened Def Con from 3.67994e-009 to 3.67995e-009
Heightened Def Con from 3.67998e-009 to 3.67999e-009
Heightened Def Con from 3.68e-009 to 3.68003e-009
Heightened Def Con from 3.68006e-009 to 3.68006e-009
Heightened Def Con from 3.68006e-009 +to 3.68009e-009
Heightened Def Con from 3.68011e-009 to 3.68017e-009
Heightened Def Con from 3.68024e-009 to 3.68024e-009
Heightened Def Con from 3.68024e-009 to 3.68024e-009
Heightened Def Con from 3.68024e-009 to 3.68031e-009
Heightened Def Con from 3.68031e-009 to 3.68031e-009
Heightened Def Con from 3.68032e-009 to 3.68033e-009
Heightened Def Con from 3.68033e-009 +to 3.68034e-009
Heightened Def Con from 3.6804e-009 to 3.68041e-009
Heightened Def Con from 3.68042e-009 to 3.80542e-009
Heightened Def Con from 3.80542e-009 to 3.80545e-009
Heightened Def Con from 3.80545e-009 to 3.80549e-009
Heightened Def Con from 3.80549e-009 to 3.80549e-009
Heightened Def Con from 3.80549e-009 to 3.80552e-009
Heightened Def Con from 3.80552e-009 to 3.80552e-009
Heightened Def Con from 3.80556e-009 to 3.80559e-009
Heightened Def Con from 3.8056e-009 to 3.80567e-009
Heightened Def Con from 3.80567e-009 to 3.80567e-009
Heightened Def Con from 3.80567e-009 to 3.80567e-009
Heightened Def Con from 3.80567e-009 +to 3.80595e-009
Heightened Def Con from 3.80606e-009 to 3.80612e-009
Heightened Def Con from 3.80612e-009 to 3.80612e-009
Heightened Def Con from 3.80612e-009 to 3.80618e-009
Heightened Def Con from 3.80621e-009 +to 3.80624e-009
Heightened Def Con from 3.80624e-009 to 3.80627e-009
Heightened Def Con from 3.80628e-009 to 3.80634e-009
Heightened Def Con from 3.80643e-009 to 3.80646e-009
Heightened Def Con from 3.80646e-009 to 3.80652e-009
Heightened Def Con from 3.80658e-009 to 3.80658e-009
Heightened Def Con from 3.80658e-009 +to 3.80661e-009
Heightened Def Con from 3.80667e-009 to 3.80667e-009
Heightened Def Con from 3.8067e-009 to 3.82233e-009
Heightened Def Con from 3.82249e-009 to 3.82249e-009
Heightened Def Con from 3.82249e-009 to 3.82249e-009
Heightened Def Con from 3.82249e-009 to 3.82249e-009
Heightened Def Con from 3.82249e-009 to 3.8225e-009
Heightened Def Con from 3.8225e-009 to 3.82256e-009
Heightened Def Con from 3.82257e-009 +to 3.82263e-009
Heightened Def Con from 3.82263e-009 to 3.82263e-009
Heightened Def Con from 3.82263e-009 to 3.82263e-009
Heightened Def Con from 3.82263e-009 to 3.82265e-009
Heightened Def Con from 3.82265e-009 +to 3.82271e-009
Heightened Def Con from 3.82271e-009 to 3.82274e-009
Heightened Def Con from 3.82275e-009 to 3.82276e-009
Heightened Def Con from 3.82295e-009 +to 3.8232e-009
Heightened Def Con from 3.8232e-009 to 3.82321e-009
Heightened Def Con from 3.82321e-009 to 3.82322e-009
Heightened Def Con from 3.82322e-009 to 3.82325e-009
Heightened Def Con from 3.82338e-009 to 3.82344e-009
Heightened Def Con from 3.82344e-009 to 3.82345e-009
Heightened Def Con from 3.82345e-009 to 3.82348e-009
Heightened Def Con from 3.82348e-009 to 3.82351e-009
Heightened Def Con from 3.82351e-009 to 3.82351e-009
Heightened Def Con from 3.82351e-009 to 3.82357e-009
Heightened Def Con from 3.82358e-009 to 3.82361e-009
Heightened Def Con from 3.82361e-009 +to 3.82361e-009
Heightened Def Con from 3.82361e-009 to 3.82365e-009
Heightened Def Con from 3.82366e-009 to 3.82366e-009
Heightened Def Con from 3.82366e-009 +to 3.82366e-009
Heightened Def Con from 3.82366e-009 to 3.83932e-009
Heightened Def Con from 3.83938e-009 +to 3.83941e-009
Heightened Def Con from 3.83942e-009 to 3.83945e-009
Heightened Def Con from 3.83946e-009 +to 3.83947e-009
Heightened Def Con from 3.83947e-009 to 3.8395e-009
Heightened Def Con from 3.8395e-009 to 3.83954e-009
Heightened Def Con from 3.83954e-009 to 3.83957e-009
Heightened Def Con from 3.83957e-009 to 3.8396e-009
Heightened Def Con from 3.8396e-009 to 3.8396e-009
Heightened Def Con from 3.8396e-009 to 3.83961e-009
Heightened Def Con from 3.83961e-009 to 3.83989e-009
Heightened Def Con from 3.83989e-009 to 3.83992e-009
Heightened Def Con from 3.83992e-009 to 3.83993e-009
Heightened Def Con from 3.83993e-009 to 3.83993e-009
Heightened Def Con from 3.83993e-009 to 3.83999e-009
Heightened Def Con from 3.84e-009 to 3.84e-009
Heightened Def Con from 3.84e-009 +to 3.84e-009
Heightened Def Con from 3.84e-009 to 3.84e-009
Heightened Def Con from 3.84e-009 to 3.84001e-009
Heightened Def Con from 3.84002e-009 to 3.84005e-009
Heightened Def Con from 3.84006e-009 to 3.84009e-009
Heightened Def Con from 3.84009e-009 to 3.84013e-009
Heightened Def Con from 3.84017e-009 to 3.84017e-009
Heightened Def Con from 3.84017e-009 to 3.84018e-009
Heightened Def Con from 3.84026e-009 to 3.8403e-009
Heightened Def Con from 3.84031e-009 to 3.84037e-009
Heightened Def Con from 3.84038e-009 to 3.84236e-009
Heightened Def Con from 3.84242e-009 to 3.84242e-009
Heightened Def Con from 3.84243e-009 to 3.84246e-009
Heightened Def Con from 3.84257e-009 to 3.84258e-009
Heightened Def Con from 3.84258e-009 to 3.84286e-009
Heightened Def Con from 3.84295e-009 to 3.84295e-009
Heightened Def Con from 3.84295e-009 to 3.84295e-009
Heightened Def Con from 3.84296e-009 to 3.84299e-009
Heightened Def Con from 3.84308e-009 to 3.84311e-009
Heightened Def Con from 3.84311e-009 +to 3.84315e-009
Heightened Def Con from 3.84324e-009 to 3.84324e-009
Heightened Def Con from 3.84324e-009 to 3.84324e-009
Heightened Def Con from 3.84325e-009 ++to 3.84376e-009
Heightened Def Con from 3.84387e-009 to 3.84387e-009
Heightened Def Con from 3.84388e-009 to 3.84415e-009
Heightened Def Con from 3.84424e-009 to 3.84424e-009
Heightened Def Con from 3.84424e-009 to 3.84424e-009
Heightened Def Con from 3.84424e-009 to 3.84424e-009
Heightened Def Con from 3.84424e-009 to 3.84424e-009
Heightened Def Con from 3.84424e-009 +to 3.84424e-009
Heightened Def Con from 3.84424e-009 to 3.84426e-009
Heightened Def Con from 3.84426e-009 to 3.84427e-009
Heightened Def Con from 3.84428e-009 to 3.84434e-009
Heightened Def Con from 3.84439e-009 to 3.84463e-009
Heightened Def Con from 3.84464e-009 to 3.96964e-009
Heightened Def Con from 3.96972e-009 +to 3.96974e-009
Heightened Def Con from 3.96987e-009 to 3.9699e-009
Heightened Def Con from 3.9699e-009 to 3.9699e-009
Heightened Def Con from 3.9699e-009 to 3.96994e-009
Heightened Def Con from 3.97001e-009 to 3.98564e-009
Heightened Def Con from 3.98564e-009 to 3.98564e-009
Heightened Def Con from 3.98564e-009 +to 3.98565e-009
Heightened Def Con from 3.98569e-009 to 3.98572e-009
Heightened Def Con from 3.98574e-009 to 3.98574e-009
Heightened Def Con from 3.98574e-009 +to 3.98578e-009
Heightened Def Con from 3.98578e-009 to 3.98582e-009
Heightened Def Con from 3.98597e-009 to 3.98601e-009
Heightened Def Con from 3.98607e-009 to 3.9861e-009
Heightened Def Con from 3.98618e-009 to 3.98619e-009
Heightened Def Con from 3.98619e-009 to 3.9862e-009
Heightened Def Con from 3.9862e-009 to 3.9862e-009
Heightened Def Con from 3.98621e-009 to 3.98621e-009
Heightened Def Con from 3.98621e-009 to 3.98624e-009
Heightened Def Con from 3.98624e-009 to 3.98652e-009
Heightened Def Con from 3.98652e-009 to 3.98658e-009
Heightened Def Con from 3.98658e-009 to 3.98661e-009
Heightened Def Con from 3.98661e-009 +to 3.98664e-009
Heightened Def Con from 3.98664e-009 to 3.98668e-009
Heightened Def Con from 3.98669e-009 to 3.98672e-009
Heightened Def Con from 3.98675e-009 to 3.98676e-009
Heightened Def Con from 3.98676e-009 to 3.98676e-009
Heightened Def Con from 3.98676e-009 to 3.98677e-009
Heightened Def Con from 3.98677e-009 to 3.98677e-009
Heightened Def Con from 3.98677e-009 to 3.98677e-009
Heightened Def Con from 3.98677e-009 to 3.98678e-009
Heightened Def Con from 3.98679e-009 to 3.9868e-009
Heightened Def Con from 3.9869e-009 to 3.98693e-009
Heightened Def Con from 3.98693e-009 +to 4.11194e-009
Heightened Def Con from 4.11194e-009 to 4.11197e-009
Heightened Def Con from 4.11215e-009 to 4.11215e-009
Heightened Def Con from 4.11215e-009 to 4.11215e-009
Heightened Def Con from 4.11215e-009 to 4.11215e-009
Heightened Def Con from 4.11215e-009 to 4.11215e-009
Heightened Def Con from 4.11215e-009 +to 4.11217e-009
Heightened Def Con from 4.11224e-009 to 4.11227e-009
Heightened Def Con from 4.11236e-009 to 4.11237e-009
Heightened Def Con from 4.11241e-009 +to 4.11242e-009
Heightened Def Con from 4.11243e-009 to 4.11243e-009
Heightened Def Con from 4.11251e-009 to 4.11252e-009
Heightened Def Con from 4.11252e-009 to 4.11253e-009
Heightened Def Con from 4.11253e-009 to 4.12816e-009
Heightened Def Con from 4.12816e-009 to 4.12817e-009
Heightened Def Con from 4.12819e-009 to 4.1282e-009
Heightened Def Con from 4.12821e-009 +to 4.12831e-009
Heightened Def Con from 4.12839e-009 to 4.12842e-009
Heightened Def Con from 4.12842e-009 to 4.12846e-009
Heightened Def Con from 4.12862e-009 to 4.12862e-009
Heightened Def Con from 4.12862e-009 to 4.12866e-009
Heightened Def Con from 4.12867e-009 to 4.12874e-009
Heightened Def Con from 4.12874e-009 to 4.12874e-009
Heightened Def Con from 4.12874e-009 to 4.12874e-009
Heightened Def Con from 4.12874e-009 to 4.12877e-009
Heightened Def Con from 4.1288e-009 to 4.12883e-009
Heightened Def Con from 4.12886e-009 to 4.12887e-009
Heightened Def Con from 4.12887e-009 to 4.12896e-009
Heightened Def Con from 4.1291e-009 to 4.14475e-009
Heightened Def Con from 4.14481e-009 to 4.14485e-009
Heightened Def Con from 4.14485e-009 to 4.14485e-009
Heightened Def Con from 4.14486e-009 +to 4.14486e-009
Heightened Def Con from 4.14486e-009 to 4.16049e-009
Heightened Def Con from 4.16059e-009 to 4.16068e-009
Heightened Def Con from 4.16075e-009 to 4.16075e-009
Heightened Def Con from 4.16075e-009 to 4.16102e-009
Heightened Def Con from 4.16103e-009 to 4.16103e-009
Heightened Def Con from 4.16103e-009 to 4.16128e-009
Heightened Def Con from 4.16135e-009 to 4.16136e-009
Heightened Def Con from 4.16142e-009 to 4.16142e-009
Heightened Def Con from 4.16142e-009 to 4.16169e-009
Heightened Def Con from 4.16172e-009 +to 4.16175e-009
Heightened Def Con from 4.16175e-009 to 4.16178e-009
Heightened Def Con from 4.16185e-009 to 4.16189e-009
Heightened Def Con from 4.16194e-009 to 4.16195e-009
Heightened Def Con from 4.16195e-009 to 4.16204e-009
Heightened Def Con from 4.1621e-009 to 4.16211e-009
Heightened Def Con from 4.1622e-009 to 4.1622e-009
Heightened Def Con from 4.1622e-009 +to 4.1622e-009
Heightened Def Con from 4.1622e-009 to 4.16226e-009
Heightened Def Con from 4.16232e-009 to 4.16238e-009
Heightened Def Con from 4.16238e-009 to 4.16242e-009
Heightened Def Con from 4.16253e-009 to 4.1626e-009
Heightened Def Con from 4.1626e-009 to 4.1626e-009
Heightened Def Con from 4.1626e-009 to 4.16261e-009
Heightened Def Con from 4.16261e-009 to 4.16267e-009
Heightened Def Con from 4.1627e-009 to 4.16273e-009
Heightened Def Con from 4.16273e-009 +to 4.16275e-009
Heightened Def Con from 4.16279e-009 to 4.16285e-009
Heightened Def Con from 4.16296e-009 to 4.16302e-009
Heightened Def Con from 4.16309e-009 to 4.1631e-009
Heightened Def Con from 4.1631e-009 to 4.16337e-009
Heightened Def Con from 4.16343e-009 to 4.16345e-009
Heightened Def Con from 4.16348e-009 to 4.16354e-009
Heightened Def Con from 4.16354e-009 to 4.16355e-009
Heightened Def Con from 4.16355e-009 to 4.16356e-009
Heightened Def Con from 4.16358e-009 +to 4.16358e-009
Heightened Def Con from 4.1636e-009 to 4.1636e-009
Heightened Def Con from 4.16362e-009 to 4.16366e-009
Heightened Def Con from 4.16385e-009 to 4.16385e-009
Heightened Def Con from 4.16385e-009 to 4.16385e-009
Heightened Def Con from 4.16385e-009 to 4.16388e-009
Heightened Def Con from 4.16388e-009 to 4.16416e-009
Heightened Def Con from 4.16422e-009 to 4.16422e-009
Heightened Def Con from 4.16422e-009 to 4.16422e-009
Heightened Def Con from 4.16422e-009 +to 4.16621e-009
Heightened Def Con from 4.16621e-009 to 4.16627e-009
Heightened Def Con from 4.16631e-009 to 4.16635e-009
Heightened Def Con from 4.16635e-009 to 4.16636e-009
Heightened Def Con from 4.16636e-009 to 4.16639e-009
Heightened Def Con from 4.16639e-009 +to 4.1664e-009
Heightened Def Con from 4.1664e-009 to 4.16644e-009
Heightened Def Con from 4.16645e-009 to 4.16648e-009
Heightened Def Con from 4.16648e-009 to 4.16651e-009
Heightened Def Con from 4.16651e-009 to 4.16652e-009
Heightened Def Con from 4.16652e-009 +to 4.16658e-009
Heightened Def Con from 4.16658e-009 to 4.16659e-009
Heightened Def Con from 4.16665e-009 to 4.16671e-009
Heightened Def Con from 4.16688e-009 to 4.16688e-009
Heightened Def Con from 4.16688e-009 to 4.16688e-009
Heightened Def Con from 4.16689e-009 to 4.16689e-009
Heightened Def Con from 4.16689e-009 to 4.16695e-009
Heightened Def Con from 4.16698e-009 to 4.16699e-009
Heightened Def Con from 4.16699e-009 to 4.16701e-009
Heightened Def Con from 4.16702e-009 to 4.16708e-009
Heightened Def Con from 4.16708e-009 to 4.16709e-009
Heightened Def Con from 4.16709e-009 to 4.16715e-009
Heightened Def Con from 4.16746e-009 to 4.16752e-009
Heightened Def Con from 4.16769e-009 to 4.16775e-009
Heightened Def Con from 4.16781e-009 to 4.16787e-009
Heightened Def Con from 4.16796e-009 to 4.16802e-009
Heightened Def Con from 4.16812e-009 to 4.16816e-009
Heightened Def Con from 4.16817e-009 to 4.1682e-009
Heightened Def Con from 4.16825e-009 to 4.16826e-009
Heightened Def Con from 4.16826e-009 to 4.16829e-009
Heightened Def Con from 4.16834e-009 to 4.16834e-009
Heightened Def Con from 4.16834e-009 to 4.16835e-009
Heightened Def Con from 4.16855e-009 to 4.16856e-009
Heightened Def Con from 4.16861e-009 to 4.16861e-009
Heightened Def Con from 4.16861e-009 to 4.16861e-009
Heightened Def Con from 4.16877e-009 to 4.16878e-009
Heightened Def Con from 4.16884e-009 to 4.16885e-009
Heightened Def Con from 4.16901e-009 +to 4.16905e-009
Heightened Def Con from 4.16906e-009 to 4.1691e-009
Heightened Def Con from 4.16913e-009 to 4.16919e-009
Heightened Def Con from 4.16924e-009 to 4.16924e-009
Heightened Def Con from 4.16925e-009 to 4.16953e-009
Heightened Def Con from 4.16959e-009 to 4.16963e-009
Heightened Def Con from 4.16963e-009 to 4.16963e-009
Heightened Def Con from 4.16963e-009 to 4.16964e-009
Heightened Def Con from 4.16964e-009 to 4.16964e-009
Heightened Def Con from 4.16964e-009 to 4.16964e-009
Heightened Def Con from 4.16964e-009 to 4.16965e-009
Heightened Def Con from 4.1697e-009 to 4.1697e-009
Heightened Def Con from 4.1697e-009 to 4.16974e-009
Heightened Def Con from 4.16974e-009 to 4.16974e-009
Heightened Def Con from 4.16974e-009 to 4.16974e-009
Heightened Def Con from 4.16974e-009 to 4.16974e-009
Heightened Def Con from 4.16974e-009 +to 4.16974e-009
Heightened Def Con from 4.16974e-009 to 4.16975e-009
Heightened Def Con from 4.16975e-009 to 4.29499e-009
Heightened Def Con from 4.29499e-009 to 4.29499e-009
Heightened Def Con from 4.29499e-009 to 4.29503e-009
Heightened Def Con from 4.29508e-009 to 5.29509e-009
Heightened Def Con from 5.29521e-009 to 5.29524e-009
Heightened Def Con from 5.29542e-009 to 5.29548e-009
Heightened Def Con from 5.29548e-009 to 5.29549e-009
Heightened Def Con from 5.29549e-009 +to 5.29551e-009
Heightened Def Con from 5.29551e-009 +to 5.29552e-009
Heightened Def Con from 5.29552e-009 to 5.29552e-009
Heightened Def Con from 5.29552e-009 to 5.29556e-009
Heightened Def Con from 5.29557e-009 +to 5.29557e-009
Heightened Def Con from 5.29558e-009 to 5.29558e-009
Heightened Def Con from 5.29564e-009 to 5.29592e-009
Heightened Def Con from 5.29599e-009 to 5.296e-009
Heightened Def Con from 5.296e-009 to 5.296e-009
Heightened Def Con from 5.296e-009 to 5.296e-009
Heightened Def Con from 5.296e-009 to 5.29603e-009
Heightened Def Con from 5.29604e-009 to 5.2961e-009
Heightened Def Con from 5.29613e-009 to 5.29613e-009
Heightened Def Con from 5.29613e-009 to 5.29616e-009
Heightened Def Con from 5.29624e-009 to 5.29627e-009
Heightened Def Con from 5.29627e-009 to 5.29628e-009
Heightened Def Con from 5.29628e-009 to 5.29634e-009
Heightened Def Con from 5.2964e-009 to 5.29641e-009
Heightened Def Con from 5.29641e-009 to 5.29644e-009
Heightened Def Con from 5.29644e-009 to 5.29647e-009
Heightened Def Con from 5.29647e-009 to 5.29846e-009
Heightened Def Con from 5.29857e-009 +to 5.29866e-009
Heightened Def Con from 5.29866e-009 to 5.29866e-009
Heightened Def Con from 5.29866e-009 +to 5.29869e-009
Heightened Def Con from 5.29876e-009 to 5.29882e-009
Heightened Def Con from 5.29888e-009 to 5.29891e-009
Heightened Def Con from 5.29894e-009 to 5.29894e-009
Heightened Def Con from 5.29894e-009 to 6.29897e-009
Heightened Def Con from 6.29897e-009 to 6.29897e-009
Heightened Def Con from 6.29897e-009 to 6.29897e-009
Heightened Def Con from 6.29898e-009 to 6.29901e-009
Heightened Def Con from 6.29901e-009 to 6.30099e-009
Heightened Def Con from 6.30109e-009 to 6.30118e-009
Heightened Def Con from 6.30118e-009 to 6.30121e-009
Heightened Def Con from 6.30126e-009 +to 6.3013e-009
Heightened Def Con from 6.30141e-009 to 6.30144e-009
Heightened Def Con from 6.30155e-009 to 6.30155e-009
Heightened Def Con from 6.30155e-009 to 6.30164e-009
Heightened Def Con from 6.30167e-009 to 6.30168e-009
Heightened Def Con from 6.30168e-009 to 6.30169e-009
Heightened Def Con from 6.30169e-009 to 6.30196e-009
Heightened Def Con from 6.30202e-009 to 6.30202e-009
Heightened Def Con from 6.30202e-009 to 6.30203e-009
Heightened Def Con from 6.30208e-009 to 6.30208e-009
Heightened Def Con from 6.30212e-009 to 6.30219e-009
Heightened Def Con from 6.30236e-009 to 6.30236e-009
Heightened Def Con from 6.30236e-009 to 6.30237e-009
Heightened Def Con from 6.30237e-009 to 6.3024e-009
Heightened Def Con from 6.30247e-009 to 6.30247e-009
Heightened Def Con from 6.30247e-009 to 6.30253e-009
Heightened Def Con from 6.30253e-009 to 6.30254e-009
Heightened Def Con from 6.30255e-009 to 7.30258e-009
Heightened Def Con from 7.30261e-009 to 7.30262e-009
Heightened Def Con from 7.3027e-009 to 7.30276e-009
Heightened Def Con from 7.30276e-009 to 7.30277e-009
Heightened Def Con from 7.30277e-009 +to 7.30283e-009
Heightened Def Con from 7.30287e-009 to 7.30289e-009
Heightened Def Con from 7.3029e-009 to 7.30291e-009
Heightened Def Con from 7.30293e-009 to 7.30293e-009
Heightened Def Con from 7.30293e-009 to 7.30294e-009
Heightened Def Con from 7.30294e-009 to 7.303e-009
Heightened Def Con from 7.30321e-009 to 7.30321e-009
Heightened Def Con from 7.30321e-009 to 7.30322e-009
Heightened Def Con from 7.30322e-009 to 7.30323e-009
Heightened Def Con from 7.30323e-009 to 7.30323e-009
Heightened Def Con from 7.30323e-009 +to 7.30348e-009
Heightened Def Con from 7.30348e-009 to 7.30352e-009
Heightened Def Con from 7.30352e-009 +to 7.30352e-009
Heightened Def Con from 7.30352e-009 to 7.30377e-009
Heightened Def Con from 7.30378e-009 to 7.30379e-009
Heightened Def Con from 7.30379e-009 to 7.30385e-009
Heightened Def Con from 7.30387e-009 to 7.3039e-009
Heightened Def Con from 7.3039e-009 to 7.3039e-009
Heightened Def Con from 7.30391e-009 to 7.30394e-009
Heightened Def Con from 7.30394e-009 to 7.30395e-009
Heightened Def Con from 7.30398e-009 to 7.30398e-009
Heightened Def Con from 7.30399e-009 to 7.30405e-009
Heightened Def Con from 7.30405e-009 to 7.30406e-009
Heightened Def Con from 7.30406e-009 +to 7.30409e-009
Heightened Def Con from 7.30418e-009 to 7.30418e-009
Heightened Def Con from 7.30419e-009 to 7.30419e-009
Heightened Def Con from 7.30419e-009 to 7.3042e-009
Heightened Def Con from 7.30432e-009 to 7.30432e-009
Heightened Def Con from 7.30433e-009 to 7.30433e-009
Heightened Def Con from 7.30433e-009 to 7.30439e-009
Heightened Def Con from 7.3044e-009 to 7.30446e-009
Heightened Def Con from 7.30464e-009 to 7.30465e-009
Heightened Def Con from 7.30465e-009 to 7.30466e-009
Heightened Def Con from 7.30473e-009 to 7.30479e-009
Heightened Def Con from 7.3048e-009 to 7.30481e-009
Heightened Def Con from 7.30483e-009 to 7.30483e-009
Heightened Def Con from 7.30483e-009 to 7.30486e-009
Heightened Def Con from 7.30487e-009 to 7.30487e-009
Heightened Def Con from 7.30488e-009 to 7.30488e-009
Heightened Def Con from 7.30488e-009 to 7.30492e-009
Heightened Def Con from 7.30498e-009 to 7.30502e-009
Heightened Def Con from 7.30502e-009 to 7.30502e-009
Heightened Def Con from 7.30502e-009 to 7.30505e-009
Heightened Def Con from 7.30505e-009 to 7.30506e-009
Heightened Def Con from 7.30506e-009 to 7.30506e-009
Heightened Def Con from 7.30506e-009 to 7.30507e-009
Heightened Def Con from 7.30513e-009 to 7.30516e-009
Heightened Def Con from 7.30516e-009 to 7.30516e-009
Heightened Def Con from 7.30516e-009 +to 7.30519e-009
Heightened Def Con from 7.30519e-009 +to 7.30526e-009
Heightened Def Con from 7.30534e-009 to 7.30535e-009
Heightened Def Con from 7.30541e-009 to 7.30541e-009
Heightened Def Con from 7.30541e-009 +to 7.30542e-009
Heightened Def Con from 7.30546e-009 to 7.30546e-009
Heightened Def Con from 7.30546e-009 to 7.30549e-009
Heightened Def Con from 7.30549e-009 to 7.30552e-009
Heightened Def Con from 7.30561e-009 to 7.30567e-009
Heightened Def Con from 7.30567e-009 to 7.30571e-009
Heightened Def Con from 7.30571e-009 to 7.30577e-009
Heightened Def Con from 7.30577e-009 to 7.30578e-009
Heightened Def Con from 7.3058e-009 to 7.30583e-009
Heightened Def Con from 7.30587e-009 to 7.30587e-009
Heightened Def Con from 7.3059e-009 to 7.30593e-009
Heightened Def Con from 7.30602e-009 to 7.30603e-009
Heightened Def Con from 7.30603e-009 to 7.30607e-009
Heightened Def Con from 7.30612e-009 to 7.30612e-009
Heightened Def Con from 7.30613e-009 +to 7.3064e-009
Heightened Def Con from 7.30641e-009 to 7.30647e-009
Heightened Def Con from 7.30649e-009 to 7.30677e-009
Heightened Def Con from 7.30682e-009 to 7.30683e-009
Heightened Def Con from 7.30685e-009 to 7.30709e-009
Heightened Def Con from 7.30717e-009 to 7.30742e-009
Heightened Def Con from 7.30744e-009 to 7.30747e-009
Heightened Def Con from 7.30747e-009 to 7.30748e-009
Heightened Def Con from 7.30748e-009 to 7.30748e-009
Heightened Def Con from 7.30749e-009 +to 7.30752e-009
Heightened Def Con from 7.30768e-009 to 7.30768e-009
Heightened Def Con from 7.30768e-009 to 7.30774e-009
Heightened Def Con from 7.30774e-009 to 7.30778e-009
Heightened Def Con from 7.30778e-009 to 7.30779e-009
Heightened Def Con from 7.30779e-009 to 7.30782e-009
Heightened Def Con from 7.30783e-009 +to 7.30786e-009
Heightened Def Con from 7.30791e-009 to 7.30794e-009
Heightened Def Con from 7.30803e-009 to 7.30809e-009
Heightened Def Con from 7.30809e-009 to 7.30809e-009
Heightened Def Con from 7.30809e-009 to 7.30812e-009
Heightened Def Con from 7.30813e-009 to 7.30813e-009
Heightened Def Con from 7.30816e-009 to 7.30817e-009
Heightened Def Con from 7.30817e-009 to 7.30823e-009
Heightened Def Con from 7.30828e-009 +to 7.30855e-009
Heightened Def Con from 7.30862e-009 +to 7.30869e-009
Heightened Def Con from 7.30875e-009 to 7.30876e-009
Heightened Def Con from 7.30876e-009 to 7.30877e-009
Heightened Def Con from 7.30878e-009 to 7.30879e-009
Heightened Def Con from 7.30886e-009 to 7.30886e-009
Heightened Def Con from 7.30896e-009 +to 7.30902e-009
Heightened Def Con from 7.30909e-009 to 7.30909e-009
Heightened Def Con from 7.30909e-009 to 7.30915e-009
Heightened Def Con from 7.30916e-009 to 7.30916e-009
Heightened Def Con from 7.30916e-009 to 7.30916e-009
Heightened Def Con from 7.30916e-009 to 7.30916e-009
Heightened Def Con from 7.30916e-009 to 7.30916e-009
Heightened Def Con from 7.30916e-009 to 7.30922e-009
Heightened Def Con from 7.30927e-009 to 7.30927e-009
Heightened Def Con from 7.30927e-009 to 7.30928e-009
Heightened Def Con from 7.30928e-009 to 7.30929e-009
Heightened Def Con from 7.3093e-009 to 7.30934e-009
Heightened Def Con from 7.30937e-009 to 7.30938e-009
Heightened Def Con from 7.30941e-009 to 7.30941e-009
Heightened Def Con from 7.30941e-009 to 7.30942e-009
Heightened Def Con from 7.30947e-009 to 7.30948e-009
Heightened Def Con from 7.30949e-009 to 7.30949e-009
Heightened Def Con from 7.30953e-009 ++to 7.31152e-009
Heightened Def Con from 7.31162e-009 +to 7.31162e-009
Heightened Def Con from 7.31162e-009 to 7.31169e-009
Heightened Def Con from 7.31169e-009 to 7.31175e-009
Heightened Def Con from 7.31175e-009 +to 7.43682e-009
Heightened Def Con from 7.43731e-009 to 7.43758e-009
Heightened Def Con from 7.43758e-009 to 7.4377e-009
Heightened Def Con from 7.43777e-009 to 7.43975e-009
Heightened Def Con from 7.43975e-009 +to 7.43975e-009
Heightened Def Con from 7.43975e-009 to 7.43981e-009
Heightened Def Con from 7.43988e-009 to 7.43991e-009
Heightened Def Con from 7.43999e-009 to 7.43999e-009
Heightened Def Con from 7.43999e-009 to 7.44024e-009
Heightened Def Con from 7.44032e-009 to 7.44032e-009
Heightened Def Con from 7.44032e-009 to 7.44033e-009
Heightened Def Con from 7.44039e-009 to 7.44039e-009
Heightened Def Con from 7.44039e-009 to 7.4404e-009
Heightened Def Con from 7.44041e-009 to 7.44047e-009
Heightened Def Con from 7.44047e-009 to 7.44047e-009
Heightened Def Con from 7.44047e-009 to 7.44057e-009
Heightened Def Con from 7.44063e-009 to 7.44072e-009
Heightened Def Con from 7.44072e-009 to 7.44072e-009
Heightened Def Con from 7.44073e-009 to 7.44074e-009
Heightened Def Con from 7.44074e-009 to 7.44074e-009
Heightened Def Con from 7.44081e-009 to 7.44087e-009
Heightened Def Con from 7.44088e-009 to 7.44088e-009
Heightened Def Con from 7.44088e-009 to 7.44095e-009
Heightened Def Con from 7.44098e-009 to 7.44101e-009
Heightened Def Con from 7.44101e-009 to 7.44101e-009
Heightened Def Con from 7.44108e-009 to 7.44108e-009
Heightened Def Con from 7.44108e-009 to 7.44108e-009
Heightened Def Con from 7.44131e-009 to 7.44131e-009
Heightened Def Con from 7.44132e-009 to 7.44157e-009
Heightened Def Con from 7.4416e-009 to 7.44166e-009
Heightened Def Con from 7.44166e-009 to 7.44167e-009
Heightened Def Con from 7.44167e-009 to 7.44167e-009
Heightened Def Con from 7.44167e-009 +to 7.4417e-009
Heightened Def Con from 7.4417e-009 +to 7.44171e-009
Heightened Def Con from 7.44171e-009 to 7.44171e-009
Heightened Def Con from 7.44171e-009 to 7.44172e-009
Heightened Def Con from 7.44181e-009 to 7.44184e-009
Heightened Def Con from 7.44202e-009 to 7.44206e-009
Heightened Def Con from 7.44206e-009 to 7.44207e-009
Heightened Def Con from 7.44207e-009 to 7.44213e-009
Heightened Def Con from 7.44213e-009 to 7.45776e-009
Heightened Def Con from 7.45776e-009 to 7.45777e-009
Heightened Def Con from 7.45782e-009 to 7.45783e-009
Heightened Def Con from 7.45787e-009 to 7.45787e-009
Heightened Def Con from 7.45789e-009 to 7.45789e-009
Heightened Def Con from 7.45789e-009 to 7.45814e-009
Heightened Def Con from 7.4582e-009 to 7.4582e-009
Heightened Def Con from 7.4582e-009 to 7.4582e-009
Heightened Def Con from 7.4582e-009 to 7.4582e-009
Heightened Def Con from 7.4582e-009 to 7.4582e-009
Heightened Def Con from 7.4582e-009 to 7.4582e-009
Heightened Def Con from 7.4582e-009 +to 7.45823e-009
Heightened Def Con from 7.45823e-009 to 7.45824e-009
Heightened Def Con from 7.45824e-009 +to 7.45827e-009
Heightened Def Con from 7.45827e-009 to 7.45828e-009
Heightened Def Con from 7.45828e-009 +to 7.45829e-009
Heightened Def Con from 7.45829e-009 to 7.45829e-009
Heightened Def Con from 7.4583e-009 to 7.4583e-009
Heightened Def Con from 7.4583e-009 to 7.4583e-009
Heightened Def Con from 7.4583e-009 to 7.45831e-009
Heightened Def Con from 7.45831e-009 to 7.45858e-009
Heightened Def Con from 7.45862e-009 to 7.45865e-009
Heightened Def Con from 7.45865e-009 to 7.45865e-009
Heightened Def Con from 7.45865e-009 to 7.4589e-009
Heightened Def Con from 7.4589e-009 to 7.4589e-009
Heightened Def Con from 7.4589e-009 +to 7.45893e-009
Heightened Def Con from 7.45893e-009 to 7.45893e-009
Heightened Def Con from 7.45893e-009 ++to 7.45925e-009
Heightened Def Con from 7.45933e-009 to 7.45934e-009
Heightened Def Con from 7.45941e-009 to 7.45942e-009
Heightened Def Con from 7.45944e-009 to 7.45944e-009
Heightened Def Con from 7.45945e-009 to 7.45951e-009
Heightened Def Con from 7.45961e-009 to 7.45961e-009
Heightened Def Con from 7.45962e-009 to 7.45962e-009
Heightened Def Con from 7.45963e-009 to 7.45963e-009
Heightened Def Con from 7.45963e-009 to 7.45963e-009
Heightened Def Con from 7.45963e-009 to 7.45964e-009
Heightened Def Con from 7.45965e-009 to 7.45968e-009
Heightened Def Con from 7.45968e-009 to 7.45968e-009
Heightened Def Con from 7.45968e-009 to 7.45968e-009
Heightened Def Con from 7.45968e-009 to 7.45969e-009
Heightened Def Con from 7.45969e-009 to 7.45969e-009
Heightened Def Con from 7.45969e-009 ++to 7.45972e-009
Heightened Def Con from 7.4598e-009 to 7.45984e-009
Heightened Def Con from 7.45984e-009 to 7.45985e-009
Heightened Def Con from 7.45987e-009 to 7.45987e-009
Heightened Def Con from 7.45987e-009 +to 7.45992e-009
Heightened Def Con from 7.45993e-009 to 7.45994e-009
Heightened Def Con from 7.45994e-009 to 7.46e-009
Heightened Def Con from 7.46013e-009 to 7.46014e-009
Heightened Def Con from 7.46025e-009 to 7.46026e-009
Heightened Def Con from 7.46043e-009 to 7.46049e-009
Heightened Def Con from 7.46052e-009 to 7.46053e-009
Heightened Def Con from 7.46053e-009 +to 7.46057e-009
Heightened Def Con from 7.46063e-009 to 7.4607e-009
Heightened Def Con from 7.46072e-009 to 7.46078e-009
Heightened Def Con from 7.46078e-009 to 7.46078e-009
Heightened Def Con from 7.46078e-009 to 7.46079e-009
Heightened Def Con from 7.46079e-009 to 7.46079e-009
Heightened Def Con from 7.46079e-009 +to 7.46082e-009
Heightened Def Con from 7.46083e-009 +to 7.46089e-009
Heightened Def Con from 7.46098e-009 +to 7.46098e-009
Heightened Def Con from 7.46098e-009 to 7.46123e-009
Heightened Def Con from 7.46127e-009 to 7.4613e-009
Heightened Def Con from 7.4613e-009 to 8.46131e-009
Heightened Def Con from 8.46132e-009 to 8.46132e-009
Heightened Def Con from 8.46132e-009 to 8.46132e-009
Heightened Def Con from 8.46132e-009 +to 8.46138e-009
Heightened Def Con from 8.46148e-009 to 8.46154e-009
Heightened Def Con from 8.46159e-009 to 8.46163e-009
Heightened Def Con from 8.46163e-009 to 8.46163e-009
Heightened Def Con from 8.46163e-009 to 8.46166e-009
Heightened Def Con from 8.46166e-009 to 8.46175e-009
Heightened Def Con from 8.46176e-009 to 8.46176e-009
Heightened Def Con from 8.46185e-009 to 8.46185e-009
Heightened Def Con from 8.46185e-009 to 8.46188e-009
Heightened Def Con from 8.46189e-009 to 8.46189e-009
Heightened Def Con from 8.46189e-009 to 8.46189e-009
Heightened Def Con from 8.46189e-009 +to 8.4619e-009
Heightened Def Con from 8.46196e-009 to 8.46196e-009
Heightened Def Con from 8.46196e-009 +to 8.46221e-009
Heightened Def Con from 8.46222e-009 to 8.46223e-009
Heightened Def Con from 8.46232e-009 to 8.46233e-009
Heightened Def Con from 8.4624e-009 to 8.4624e-009
Heightened Def Con from 8.4624e-009 to 8.4624e-009
Heightened Def Con from 8.4624e-009 to 8.46244e-009
Heightened Def Con from 8.46245e-009 to 8.46272e-009
Heightened Def Con from 8.46273e-009 to 8.46273e-009
Heightened Def Con from 8.46273e-009 to 8.46276e-009
Heightened Def Con from 8.46283e-009 to 8.46284e-009
Heightened Def Con from 8.46285e-009 to 8.46285e-009
Heightened Def Con from 8.46285e-009 to 8.46286e-009
Heightened Def Con from 8.46287e-009 to 8.46288e-009
Heightened Def Con from 8.46288e-009 to 8.46294e-009
Heightened Def Con from 8.46294e-009 to 8.46319e-009
Heightened Def Con from 8.4632e-009 to 8.46347e-009
Heightened Def Con from 8.46357e-009 to 8.46358e-009
Heightened Def Con from 8.46359e-009 to 8.4636e-009
Heightened Def Con from 8.4636e-009 to 8.46362e-009
Heightened Def Con from 8.46366e-009 to 8.46366e-009
Heightened Def Con from 8.46366e-009 +to 8.46369e-009
Heightened Def Con from 8.46369e-009 +to 8.4637e-009
Heightened Def Con from 8.4637e-009 to 8.47935e-009
Heightened Def Con from 8.47942e-009 to 8.47942e-009
Heightened Def Con from 8.47942e-009 to 8.47948e-009
Heightened Def Con from 8.47948e-009 +to 8.47951e-009
Heightened Def Con from 8.47952e-009 to 8.47977e-009
Heightened Def Con from 8.47978e-009 to 8.47978e-009
Heightened Def Con from 8.47981e-009 to 8.47984e-009
Heightened Def Con from 8.47986e-009 to 8.47987e-009
Heightened Def Con from 8.47987e-009 to 8.47987e-009
Heightened Def Con from 8.47988e-009 to 8.47988e-009
Heightened Def Con from 8.47988e-009 to 8.47988e-009
Heightened Def Con from 8.47988e-009 to 8.47988e-009
Heightened Def Con from 8.47992e-009 to 8.47992e-009
Heightened Def Con from 8.47992e-009 +to 8.48002e-009
Heightened Def Con from 8.48008e-009 to 8.48012e-009
Heightened Def Con from 8.48019e-009 to 8.48023e-009
Heightened Def Con from 8.48067e-009 to 8.4807e-009
Heightened Def Con from 8.4807e-009 +to 8.48074e-009
Heightened Def Con from 8.48074e-009 to 8.48074e-009
Heightened Def Con from 8.48074e-009 to 8.4808e-009
Heightened Def Con from 8.4808e-009 to 8.48081e-009
Heightened Def Con from 8.48088e-009 to 8.48115e-009
Heightened Def Con from 8.48117e-009 to 8.48118e-009
Heightened Def Con from 8.48129e-009 +to 8.48135e-009
Heightened Def Con from 8.48136e-009 to 8.48142e-009
Heightened Def Con from 8.48143e-009 to 8.48149e-009
Heightened Def Con from 8.48152e-009 to 8.48158e-009
Heightened Def Con from 8.48158e-009 to 8.48161e-009
Heightened Def Con from 8.48161e-009 to 8.48161e-009
Heightened Def Con from 8.48161e-009 to 8.48161e-009
Heightened Def Con from 8.48161e-009 to 8.48167e-009
Heightened Def Con from 8.48168e-009 +to 8.48175e-009
Heightened Def Con from 8.48175e-009 to 8.48176e-009
Heightened Def Con from 8.48176e-009 to 8.48176e-009
Heightened Def Con from 8.48176e-009 to 8.48177e-009
Heightened Def Con from 8.48178e-009 to 8.48181e-009
Heightened Def Con from 8.48211e-009 to 8.48211e-009
Heightened Def Con from 8.48213e-009 to 8.48213e-009
Heightened Def Con from 8.48215e-009 to 8.4841e-009
Heightened Def Con from 8.48411e-009 +to 8.48412e-009
Heightened Def Con from 8.48412e-009 +to 8.48416e-009
Heightened Def Con from 8.48416e-009 to 8.48468e-009
Heightened Def Con from 8.48475e-009 to 8.48481e-009
Heightened Def Con from 8.48483e-009 to 8.48484e-009
Heightened Def Con from 8.48494e-009 to 8.48494e-009
Heightened Def Con from 8.48495e-009 to 8.48496e-009
Heightened Def Con from 8.48496e-009 to 8.48499e-009
Heightened Def Con from 8.48516e-009 to 8.48517e-009
Heightened Def Con from 8.48517e-009 to 8.48517e-009
Heightened Def Con from 8.48517e-009 to 8.48517e-009
Heightened Def Con from 8.48517e-009 to 8.48517e-009
Heightened Def Con from 8.48517e-009 to 8.48517e-009
Heightened Def Con from 8.48517e-009 to 8.48517e-009
Heightened Def Con from 8.48517e-009 to 8.48517e-009
Heightened Def Con from 8.48517e-009 to 8.48517e-009
Heightened Def Con from 8.48517e-009 to 8.48517e-009
Heightened Def Con from 8.48517e-009 +to 8.48517e-009
Heightened Def Con from 8.4852e-009 to 8.4852e-009
Heightened Def Con from 8.48521e-009 to 8.48524e-009
Heightened Def Con from 8.48524e-009 +to 8.48524e-009
Heightened Def Con from 8.48524e-009 +to 8.48525e-009
Heightened Def Con from 8.48525e-009 to 8.48532e-009
Heightened Def Con from 8.4854e-009 to 8.48541e-009
Heightened Def Con from 8.48541e-009 to 8.48541e-009
Heightened Def Con from 8.48555e-009 to 8.4858e-009
Heightened Def Con from 8.48581e-009 to 8.48581e-009
Heightened Def Con from 8.48581e-009 to 8.48584e-009
Heightened Def Con from 8.48584e-009 to 8.48585e-009
Heightened Def Con from 8.48603e-009 to 8.48603e-009
Heightened Def Con from 8.48603e-009 to 8.48603e-009
Heightened Def Con from 8.48603e-009 to 8.48604e-009
Heightened Def Con from 8.48612e-009 to 8.48615e-009
Heightened Def Con from 8.48633e-009 +to 8.48634e-009
Heightened Def Con from 8.48634e-009 to 8.48637e-009
Heightened Def Con from 8.48641e-009 to 8.48644e-009
Heightened Def Con from 8.48653e-009 to 8.48656e-009
Heightened Def Con from 8.48656e-009 to 8.48657e-009
Heightened Def Con from 8.48658e-009 to 8.48658e-009
Heightened Def Con from 8.48658e-009 +to 8.48661e-009
Heightened Def Con from 8.48661e-009 to 8.48664e-009
Heightened Def Con from 8.48665e-009 to 8.48665e-009
Heightened Def Con from 8.48665e-009 to 8.48665e-009
Heightened Def Con from 8.48665e-009 to 8.48666e-009
Heightened Def Con from 8.48666e-009 to 8.48669e-009
Heightened Def Con from 8.48669e-009 to 8.48672e-009
Heightened Def Con from 8.48672e-009 +to 8.48676e-009
Heightened Def Con from 8.4868e-009 to 8.4868e-009
Heightened Def Con from 8.4868e-009 to 8.48684e-009
Heightened Def Con from 8.48689e-009 to 8.48696e-009
Heightened Def Con from 8.48696e-009 to 8.48699e-009
Heightened Def Con from 8.487e-009 to 8.48701e-009
Heightened Def Con from 8.48705e-009 to 8.48705e-009
Heightened Def Con from 8.48708e-009 to 8.48711e-009
Heightened Def Con from 8.48711e-009 to 8.48714e-009
Heightened Def Con from 8.48723e-009 to 8.48724e-009
Heightened Def Con from 8.48726e-009 to 8.48727e-009
Heightened Def Con from 8.48727e-009 to 8.48727e-009
Heightened Def Con from 8.48736e-009 +to 8.48739e-009
Heightened Def Con from 8.48746e-009 to 8.48747e-009
Heightened Def Con from 8.48756e-009 to 8.4876e-009
Heightened Def Con from 8.48766e-009 to 8.48769e-009
Heightened Def Con from 8.48772e-009 to 8.48778e-009
Heightened Def Con from 8.48784e-009 to 8.48785e-009
Heightened Def Con from 8.488e-009 to 8.488e-009
Heightened Def Con from 8.48811e-009 to 8.48811e-009
Heightened Def Con from 8.48811e-009 +to 8.48814e-009
Heightened Def Con from 8.48826e-009 to 8.48827e-009
Heightened Def Con from 8.48832e-009 to 8.48835e-009
Heightened Def Con from 8.48837e-009 to 8.48837e-009
Heightened Def Con from 8.48837e-009 to 8.4884e-009
Heightened Def Con from 8.4884e-009 to 8.4884e-009
Heightened Def Con from 8.4884e-009 to 8.48844e-009
Heightened Def Con from 8.48846e-009 to 8.48847e-009
Heightened Def Con from 8.48847e-009 to 8.48847e-009
Heightened Def Con from 8.48847e-009 to 8.48848e-009
Heightened Def Con from 8.48848e-009 +to 8.48876e-009
Heightened Def Con from 8.48876e-009 to 8.48876e-009
Heightened Def Con from 8.48877e-009 to 8.48877e-009
Heightened Def Con from 8.48889e-009 to 8.48893e-009
Heightened Def Con from 8.48893e-009 to 8.48917e-009
Heightened Def Con from 8.48917e-009 to 8.4892e-009
Heightened Def Con from 8.48921e-009 to 8.48921e-009
Heightened Def Con from 8.48921e-009 to 8.48949e-009
Heightened Def Con from 8.48967e-009 to 8.48992e-009
Heightened Def Con from 8.49001e-009 to 8.49008e-009
Heightened Def Con from 8.49008e-009 to 8.49014e-009
Heightened Def Con from 8.49014e-009 to 8.49015e-009
Heightened Def Con from 8.49018e-009 to 8.49018e-009
Heightened Def Con from 8.49019e-009 to 8.49019e-009
Heightened Def Con from 8.49019e-009 to 8.49025e-009
Heightened Def Con from 8.49025e-009 to 8.49031e-009
Heightened Def Con from 8.4905e-009 to 8.4905e-009
Heightened Def Con from 8.4905e-009 to 8.49053e-009
Heightened Def Con from 8.49058e-009 +to 8.49062e-009
Heightened Def Con from 8.49067e-009 to 8.49074e-009
Heightened Def Con from 8.49074e-009 to 8.49074e-009
Heightened Def Con from 8.49074e-009 to 8.49101e-009
Heightened Def Con from 8.49111e-009 to 8.49111e-009
Heightened Def Con from 8.49112e-009 to 8.49112e-009
Heightened Def Con from 8.49113e-009 to 8.49119e-009
Heightened Def Con from 8.4912e-009 to 8.49126e-009
Heightened Def Con from 8.49126e-009 to 8.49133e-009
Heightened Def Con from 8.49134e-009 to 8.49135e-009
Heightened Def Con from 8.49155e-009 to 8.49351e-009
Heightened Def Con from 8.4936e-009 to 8.49366e-009
Heightened Def Con from 8.4937e-009 to 8.49374e-009
Heightened Def Con from 8.49377e-009 to 8.49404e-009
Heightened Def Con from 8.49414e-009 to 8.49415e-009
Heightened Def Con from 8.49417e-009 to 8.49423e-009
Heightened Def Con from 8.49424e-009 to 8.4943e-009
Heightened Def Con from 8.49436e-009 to 8.49437e-009
Heightened Def Con from 8.49437e-009 to 8.49443e-009
Heightened Def Con from 8.49443e-009 to 8.49444e-009
Heightened Def Con from 8.49444e-009 to 8.49445e-009
Heightened Def Con from 8.49445e-009 to 8.49445e-009
Heightened Def Con from 8.49445e-009 to 8.49446e-009
Heightened Def Con from 8.49446e-009 to 8.4947e-009
Heightened Def Con from 8.4947e-009 to 8.4947e-009
Heightened Def Con from 8.4947e-009 to 8.49476e-009
Heightened Def Con from 8.49477e-009 to 8.49478e-009
Heightened Def Con from 8.4949e-009 to 8.51053e-009
Heightened Def Con from 8.51053e-009 +to 8.51055e-009
Heightened Def Con from 8.51056e-009 to 8.51059e-009
Heightened Def Con from 8.51077e-009 to 8.5108e-009
Heightened Def Con from 8.51083e-009 to 8.51086e-009
Heightened Def Con from 8.51091e-009 to 8.51092e-009
Heightened Def Con from 8.511e-009 +to 8.51103e-009
Heightened Def Con from 8.51109e-009 to 8.5111e-009
Heightened Def Con from 8.51111e-009 to 8.51112e-009
Heightened Def Con from 8.51117e-009 to 8.51118e-009
Heightened Def Con from 8.51122e-009 +to 8.51125e-009
Heightened Def Con from 8.51138e-009 to 8.51139e-009
Heightened Def Con from 8.51146e-009 to 8.51152e-009
Heightened Def Con from 8.51153e-009 to 8.5116e-009
Heightened Def Con from 8.51164e-009 to 8.51167e-009
Heightened Def Con from 8.51167e-009 to 8.51167e-009
Heightened Def Con from 8.51167e-009 to 8.51167e-009
Heightened Def Con from 8.51168e-009 to 8.51195e-009
Heightened Def Con from 8.51195e-009 to 8.51199e-009
Heightened Def Con from 8.51203e-009 +to 8.5123e-009
Heightened Def Con from 8.51237e-009 to 8.51237e-009
Heightened Def Con from 8.51242e-009 +to 8.52805e-009
Heightened Def Con from 8.52812e-009 +to 8.52812e-009
Heightened Def Con from 8.52812e-009 to 8.52813e-009
Heightened Def Con from 8.52813e-009 to 8.52817e-009
Heightened Def Con from 8.52817e-009 to 8.52817e-009
Heightened Def Con from 8.52836e-009 to 8.52842e-009
Heightened Def Con from 8.52852e-009 to 8.52855e-009
Heightened Def Con from 8.52855e-009 to 8.52856e-009
Heightened Def Con from 8.52858e-009 to 8.52864e-009
Heightened Def Con from 8.52871e-009 to 8.52896e-009
Heightened Def Con from 8.52932e-009 to 8.52935e-009
Heightened Def Con from 8.52944e-009 +to 8.5295e-009
Heightened Def Con from 8.52976e-009 to 8.52976e-009
Heightened Def Con from 8.52976e-009 to 8.5298e-009
Heightened Def Con from 8.5298e-009 to 8.52986e-009
Heightened Def Con from 8.5299e-009 to 8.5299e-009
Heightened Def Con from 8.5299e-009 to 8.52996e-009
Heightened Def Con from 8.53015e-009 to 8.53018e-009
Heightened Def Con from 8.53019e-009 +to 8.53023e-009
Heightened Def Con from 8.53031e-009 to 8.53037e-009
Heightened Def Con from 8.53037e-009 to 8.53037e-009
Heightened Def Con from 8.53037e-009 to 8.53041e-009
Heightened Def Con from 8.53045e-009 to 8.53045e-009
Heightened Def Con from 8.53045e-009 to 8.53045e-009
Heightened Def Con from 8.53046e-009 to 8.53049e-009
Heightened Def Con from 8.53065e-009 to 8.53066e-009
Heightened Def Con from 8.53067e-009 to 8.53067e-009
Heightened Def Con from 8.53067e-009 to 8.53067e-009
Heightened Def Con from 8.53067e-009 to 8.53067e-009
Heightened Def Con from 8.53067e-009 +to 8.53068e-009
Heightened Def Con from 8.53068e-009 to 8.53074e-009
Heightened Def Con from 8.5309e-009 to 8.5309e-009
Heightened Def Con from 8.53091e-009 to 8.53092e-009
Heightened Def Con from 8.53093e-009 to 8.53094e-009
Heightened Def Con from 8.53106e-009 to 8.53106e-009
Heightened Def Con from 8.53106e-009 to 8.53107e-009
Heightened Def Con from 8.53114e-009 to 8.53117e-009
Heightened Def Con from 8.53117e-009 +to 8.5312e-009
Heightened Def Con from 8.53129e-009 +to 8.53129e-009
Heightened Def Con from 8.53129e-009 to 8.5313e-009
Heightened Def Con from 8.53143e-009 to 8.53149e-009
Heightened Def Con from 8.53149e-009 to 8.53149e-009
Heightened Def Con from 8.53149e-009 to 8.5315e-009
Heightened Def Con from 8.5315e-009 +to 8.54712e-009
Heightened Def Con from 8.54712e-009 +to 8.54716e-009
Heightened Def Con from 8.54716e-009 to 8.54719e-009
Heightened Def Con from 8.54719e-009 to 8.5472e-009
Heightened Def Con from 8.5472e-009 to 8.54726e-009
Heightened Def Con from 8.54727e-009 to 8.5473e-009
Heightened Def Con from 8.54741e-009 to 8.54769e-009
Heightened Def Con from 8.54778e-009 to 8.54787e-009
Heightened Def Con from 8.54793e-009 to 8.54799e-009
Heightened Def Con from 8.54799e-009 to 8.54827e-009
Heightened Def Con from 8.54827e-009 to 8.54828e-009
Heightened Def Con from 8.54839e-009 to 8.54839e-009
Heightened Def Con from 8.5484e-009 to 8.5484e-009
Heightened Def Con from 8.54843e-009 to 8.54847e-009
Heightened Def Con from 8.54852e-009 to 8.54853e-009
Heightened Def Con from 8.54853e-009 to 8.54856e-009
Heightened Def Con from 8.54857e-009 to 8.5486e-009
Heightened Def Con from 8.54868e-009 to 8.54871e-009
Heightened Def Con from 8.54882e-009 to 8.54888e-009
Heightened Def Con from 8.54903e-009 to 8.54903e-009
Heightened Def Con from 8.54903e-009 to 8.56466e-009
Heightened Def Con from 8.56467e-009 to 8.56468e-009
Heightened Def Con from 8.56468e-009 to 8.56468e-009
Heightened Def Con from 8.56468e-009 to 8.56468e-009
Heightened Def Con from 8.56469e-009 to 8.56469e-009
Heightened Def Con from 8.56469e-009 +to 8.56475e-009
Heightened Def Con from 8.56481e-009 to 8.56484e-009
Heightened Def Con from 8.56491e-009 to 8.56491e-009
Heightened Def Con from 8.56491e-009 to 8.56492e-009
Heightened Def Con from 8.56492e-009 to 8.56492e-009
Heightened Def Con from 8.56492e-009 to 8.56498e-009
Heightened Def Con from 8.56503e-009 to 8.56503e-009
Heightened Def Con from 8.56503e-009 to 8.56503e-009
Heightened Def Con from 8.56503e-009 to 8.56509e-009
Heightened Def Con from 8.5651e-009 to 8.56513e-009
Heightened Def Con from 8.56513e-009 to 8.56516e-009
Heightened Def Con from 8.56516e-009 to 8.56516e-009
Heightened Def Con from 8.56516e-009 to 8.56544e-009
Heightened Def Con from 8.5655e-009 to 8.56553e-009
Heightened Def Con from 8.56553e-009 to 8.56578e-009
Heightened Def Con from 8.56579e-009 to 8.56579e-009
Heightened Def Con from 8.56579e-009 to 8.56582e-009
Heightened Def Con from 8.56582e-009 to 8.56582e-009
Heightened Def Con from 8.56583e-009 to 8.56583e-009
Heightened Def Con from 8.56583e-009 to 8.56583e-009
Heightened Def Con from 8.56583e-009 to 8.56584e-009
Heightened Def Con from 8.56584e-009 to 8.56584e-009
Heightened Def Con from 8.56584e-009 to 8.56585e-009
Heightened Def Con from 8.56585e-009 to 8.56585e-009
Heightened Def Con from 8.56585e-009 to 8.56588e-009
Heightened Def Con from 8.56588e-009 to 8.56588e-009
Heightened Def Con from 8.56591e-009 to 8.56594e-009
Heightened Def Con from 8.56623e-009 to 8.56623e-009
Heightened Def Con from 8.56623e-009 to 8.56624e-009
Heightened Def Con from 8.56637e-009 to 8.56664e-009
Heightened Def Con from 8.56664e-009 to 8.56665e-009
Heightened Def Con from 8.56665e-009 to 8.56671e-009
Heightened Def Con from 8.56672e-009 to 8.56672e-009
Heightened Def Con from 8.56672e-009 to 8.56678e-009
Heightened Def Con from 8.56682e-009 to 8.56682e-009
Heightened Def Con from 8.56682e-009 to 8.56683e-009
Heightened Def Con from 8.56687e-009 to 8.56688e-009
Heightened Def Con from 8.56688e-009 to 8.56694e-009
Heightened Def Con from 8.56702e-009 to 8.56702e-009
Heightened Def Con from 8.5671e-009 to 8.56711e-009
Heightened Def Con from 8.56717e-009 to 8.56717e-009
Heightened Def Con from 8.56717e-009 to 8.56717e-009
Heightened Def Con from 8.56718e-009 to 8.56913e-009
Heightened Def Con from 8.56915e-009 to 8.56915e-009
Heightened Def Con from 8.56915e-009 to 8.58478e-009
Heightened Def Con from 8.58478e-009 to 8.58479e-009
Heightened Def Con from 8.58479e-009 to 8.58479e-009
Heightened Def Con from 8.58479e-009 to 8.5848e-009
Heightened Def Con from 8.5848e-009 to 8.5848e-009
Heightened Def Con from 8.5848e-009 to 8.5848e-009
Heightened Def Con from 8.5848e-009 +to 8.58486e-009
Heightened Def Con from 8.58487e-009 to 8.5849e-009
Heightened Def Con from 8.5849e-009 to 8.58493e-009
Heightened Def Con from 8.58493e-009 +to 8.58494e-009
Heightened Def Con from 8.58495e-009 to 8.5852e-009
Heightened Def Con from 8.58521e-009 to 8.58527e-009
Heightened Def Con from 8.58527e-009 to 8.58528e-009
Heightened Def Con from 8.58529e-009 to 8.58554e-009
Heightened Def Con from 8.58554e-009 to 8.58557e-009
Heightened Def Con from 8.58557e-009 to 9.58557e-009
Heightened Def Con from 9.58557e-009 to 9.58557e-009
Heightened Def Con from 9.58557e-009 +to 9.58557e-009
Heightened Def Con from 9.58557e-009 to 9.5856e-009
Heightened Def Con from 9.5856e-009 to 9.58561e-009
Heightened Def Con from 9.58561e-009 to 9.58561e-009
Heightened Def Con from 9.58561e-009 ++to 9.58614e-009
Heightened Def Con from 9.5862e-009 to 9.58621e-009
Heightened Def Con from 9.58624e-009 to 9.5863e-009
Heightened Def Con from 9.58639e-009 to 9.58639e-009
Heightened Def Con from 9.58639e-009 to 9.58639e-009
Heightened Def Con from 9.58639e-009 to 9.58835e-009
Heightened Def Con from 9.58835e-009 +to 9.58835e-009
Heightened Def Con from 9.58836e-009 to 9.5884e-009
Heightened Def Con from 9.58845e-009 +to 9.58849e-009
Heightened Def Con from 9.5885e-009 to 9.5885e-009
Heightened Def Con from 9.5885e-009 to 9.58852e-009
Heightened Def Con from 9.58869e-009 to 9.58875e-009
Heightened Def Con from 9.58881e-009 to 9.58881e-009
Heightened Def Con from 9.58886e-009 to 9.58892e-009
Heightened Def Con from 9.58903e-009 to 9.58912e-009
Heightened Def Con from 9.58912e-009 to 9.58912e-009
Heightened Def Con from 9.58912e-009 to 9.58916e-009
Heightened Def Con from 9.5892e-009 to 9.58929e-009
Heightened Def Con from 9.58935e-009 to 9.58936e-009
Heightened Def Con from 9.58939e-009 to 9.58943e-009
Heightened Def Con from 9.58954e-009 to 9.58958e-009
Heightened Def Con from 9.58958e-009 to 9.71461e-009
Heightened Def Con from 9.71468e-009 to 9.71471e-009
Heightened Def Con from 9.71475e-009 to 9.71478e-009
Heightened Def Con from 9.71478e-009 to 9.71481e-009
Heightened Def Con from 9.71481e-009 to 9.71482e-009
Heightened Def Con from 9.71482e-009 +to 9.71485e-009
Heightened Def Con from 9.71492e-009 to 9.71492e-009
Heightened Def Con from 9.71493e-009 to 9.71496e-009
Heightened Def Con from 9.71497e-009 to 9.715e-009
Heightened Def Con from 9.71519e-009 +to 9.71522e-009
Heightened Def Con from 9.71522e-009 to 9.71522e-009
Heightened Def Con from 9.71522e-009 to 9.71523e-009
Heightened Def Con from 9.71524e-009 to 9.71527e-009
Heightened Def Con from 9.71529e-009 to 9.71529e-009
Heightened Def Con from 9.71529e-009 +to 9.71539e-009
Heightened Def Con from 9.71541e-009 to 9.71545e-009
Heightened Def Con from 9.7155e-009 to 9.73112e-009
Heightened Def Con from 9.73112e-009 to 9.73114e-009
Heightened Def Con from 9.73119e-009 to 9.73119e-009
Heightened Def Con from 9.73119e-009 to 9.73125e-009
Heightened Def Con from 9.73131e-009 to 9.73134e-009
Heightened Def Con from 9.7314e-009 to 9.8564e-009
Heightened Def Con from 9.85651e-009 to 9.85654e-009
Heightened Def Con from 9.8566e-009 to 9.85661e-009
Heightened Def Con from 9.85661e-009 +to 9.85661e-009
Heightened Def Con from 9.85661e-009 to 9.85686e-009
Heightened Def Con from 9.85686e-009 to 1.08569e-008
Heightened Def Con from 1.08569e-008 to 1.08569e-008
Heightened Def Con from 1.08569e-008 to 1.08569e-008
Heightened Def Con from 1.08569e-008 to 1.08569e-008
Heightened Def Con from 1.08569e-008 ++to 1.08572e-008
Heightened Def Con from 1.08574e-008 to 1.08574e-008
Heightened Def Con from 1.08574e-008 to 1.08574e-008
Heightened Def Con from 1.08574e-008 to 1.08575e-008
Heightened Def Con from 1.08575e-008 to 1.08575e-008
Heightened Def Con from 1.08575e-008 to 1.08576e-008
Heightened Def Con from 1.08576e-008 to 1.08576e-008
Heightened Def Con from 1.08576e-008 to 1.08576e-008
Heightened Def Con from 1.08576e-008 to 1.08576e-008
Heightened Def Con from 1.08576e-008 to 1.08576e-008
Heightened Def Con from 1.08577e-008 to 1.08577e-008
Heightened Def Con from 1.08577e-008 to 1.08577e-008
Heightened Def Con from 1.08578e-008 to 1.08578e-008
Heightened Def Con from 1.08578e-008 to 1.08579e-008
Heightened Def Con from 1.08579e-008 to 1.08579e-008
Heightened Def Con from 1.08581e-008 to 1.08581e-008
Heightened Def Con from 1.08584e-008 to 1.08584e-008
Heightened Def Con from 1.08584e-008 to 1.08584e-008
Heightened Def Con from 1.08584e-008 to 1.08584e-008
Heightened Def Con from 1.08585e-008 to 1.08585e-008
Heightened Def Con from 1.08585e-008 to 1.08586e-008
Heightened Def Con from 1.08586e-008 to 1.08587e-008
Heightened Def Con from 1.08587e-008 to 1.08587e-008
Heightened Def Con from 1.08589e-008 +to 1.09839e-008
Heightened Def Con from 1.09839e-008 to 1.09839e-008
Heightened Def Con from 1.09843e-008 to 1.09848e-008
Heightened Def Con from 1.09848e-008 to 1.09848e-008
Heightened Def Con from 1.09849e-008 to 1.09849e-008
Heightened Def Con from 1.09849e-008 to 1.0985e-008
Heightened Def Con from 1.09853e-008 to 1.09853e-008
Heightened Def Con from 1.09853e-008 to 1.09854e-008
Heightened Def Con from 1.09854e-008 to 1.09854e-008
Heightened Def Con from 1.09855e-008 to 1.09856e-008
Heightened Def Con from 1.09857e-008 to 1.09857e-008
Heightened Def Con from 1.09857e-008 to 1.09857e-008
Heightened Def Con from 1.09857e-008 to 1.09857e-008
Heightened Def Con from 1.09859e-008 ++to 1.09859e-008
Heightened Def Con from 1.0986e-008 to 1.0986e-008
Heightened Def Con from 1.0986e-008 +to 1.0986e-008
Heightened Def Con from 1.0986e-008 to 1.09861e-008
Heightened Def Con from 1.09861e-008 to 1.09862e-008
Heightened Def Con from 1.09863e-008 to 1.09864e-008
Heightened Def Con from 1.09864e-008 to 1.09864e-008
Heightened Def Con from 1.09864e-008 to 1.09864e-008
Heightened Def Con from 1.09864e-008 to 1.09864e-008
Heightened Def Con from 1.09864e-008 to 1.09864e-008
Heightened Def Con from 1.09864e-008 to 1.09864e-008
Heightened Def Con from 1.09864e-008 to 1.09864e-008
Heightened Def Con from 1.09865e-008 to 1.09867e-008
Heightened Def Con from 1.09867e-008 to 1.09867e-008
Heightened Def Con from 1.09867e-008 to 1.09867e-008
Heightened Def Con from 1.0987e-008 to 1.0987e-008
Heightened Def Con from 1.0987e-008 to 1.0987e-008
Heightened Def Con from 1.0987e-008 to 1.0987e-008
Heightened Def Con from 1.0987e-008 to 1.09871e-008
Heightened Def Con from 1.09871e-008 to 1.09871e-008
Heightened Def Con from 1.09871e-008 to 1.09871e-008
Heightened Def Con from 1.09871e-008 to 1.09871e-008
Heightened Def Con from 1.09871e-008 to 1.09871e-008
Heightened Def Con from 1.09872e-008 to 1.09872e-008
Heightened Def Con from 1.09872e-008 to 1.09872e-008
Heightened Def Con from 1.09872e-008 to 1.09872e-008
Heightened Def Con from 1.09873e-008 to 1.09873e-008
Heightened Def Con from 1.09873e-008 to 1.09873e-008
Heightened Def Con from 1.09873e-008 to 1.09873e-008
Heightened Def Con from 1.09873e-008 +to 1.09873e-008
Heightened Def Con from 1.09873e-008 to 1.09874e-008
Heightened Def Con from 1.09874e-008 to 1.09874e-008
Heightened Def Con from 1.09874e-008 to 1.09874e-008
Heightened Def Con from 1.09874e-008 +to 1.09875e-008
Heightened Def Con from 1.09875e-008 to 1.09875e-008
Heightened Def Con from 1.09876e-008 to 1.09876e-008
Heightened Def Con from 1.09876e-008 to 1.09876e-008
Heightened Def Con from 1.09876e-008 to 1.09877e-008
Heightened Def Con from 1.09877e-008 to 1.09877e-008
Heightened Def Con from 1.09877e-008 to 1.09877e-008
Heightened Def Con from 1.09877e-008 to 1.09877e-008
Heightened Def Con from 1.09877e-008 to 1.09878e-008
Heightened Def Con from 1.09878e-008 to 1.09878e-008
Heightened Def Con from 1.09878e-008 to 1.09878e-008
Heightened Def Con from 1.09879e-008 to 1.09879e-008
Heightened Def Con from 1.09879e-008 to 1.09879e-008
Heightened Def Con from 1.0988e-008 to 1.0988e-008
Heightened Def Con from 1.0988e-008 to 1.09881e-008
Heightened Def Con from 1.09881e-008 +to 1.09881e-008
Heightened Def Con from 1.09881e-008 to 1.09882e-008
Heightened Def Con from 1.09882e-008 to 1.09882e-008
Heightened Def Con from 1.09882e-008 to 1.09882e-008
Heightened Def Con from 1.09883e-008 to 1.09883e-008
Heightened Def Con from 1.09883e-008 to 1.09883e-008
Heightened Def Con from 1.09884e-008 to 1.09884e-008
Heightened Def Con from 1.09885e-008 +to 1.09888e-008
Heightened Def Con from 1.09889e-008 to 1.09889e-008
Heightened Def Con from 1.09889e-008 to 1.09889e-008
Heightened Def Con from 1.09889e-008 to 1.09889e-008
Heightened Def Con from 1.09889e-008 to 1.09892e-008
Heightened Def Con from 1.09892e-008 to 1.09892e-008
Heightened Def Con from 1.09893e-008 to 1.09893e-008
Heightened Def Con from 1.09893e-008 to 1.09893e-008
Heightened Def Con from 1.09894e-008 to 1.09894e-008
Heightened Def Con from 1.09894e-008 to 1.09894e-008
Heightened Def Con from 1.09894e-008 to 1.09894e-008
Heightened Def Con from 1.09894e-008 to 1.09894e-008
Heightened Def Con from 1.09894e-008 to 1.09895e-008
Heightened Def Con from 1.09895e-008 to 1.09895e-008
Heightened Def Con from 1.09895e-008 to 1.09895e-008
Heightened Def Con from 1.09896e-008 to 1.09896e-008
Heightened Def Con from 1.09898e-008 to 1.09898e-008
Heightened Def Con from 1.09898e-008 to 1.09898e-008
Heightened Def Con from 1.09898e-008 to 1.09898e-008
Heightened Def Con from 1.09898e-008 to 1.09898e-008
Heightened Def Con from 1.09899e-008 to 1.09899e-008
Heightened Def Con from 1.09899e-008 to 1.099e-008
Heightened Def Con from 1.099e-008 to 1.09903e-008
Heightened Def Con from 1.09904e-008 to 1.09904e-008
Heightened Def Con from 1.09905e-008 to 1.0991e-008
Heightened Def Con from 1.0991e-008 +to 1.09911e-008
Heightened Def Con from 1.09911e-008 to 1.09913e-008
Heightened Def Con from 1.09913e-008 to 1.09914e-008
Heightened Def Con from 1.09914e-008 to 1.09914e-008
Heightened Def Con from 1.09914e-008 to 1.09914e-008
Heightened Def Con from 1.09914e-008 to 1.09915e-008
Heightened Def Con from 1.09915e-008 to 1.09915e-008
Heightened Def Con from 1.09917e-008 to 1.09917e-008
Heightened Def Con from 1.09918e-008 to 1.09918e-008
Heightened Def Con from 1.09918e-008 to 1.09919e-008
Heightened Def Con from 1.09919e-008 to 1.09919e-008
Heightened Def Con from 1.09919e-008 to 1.09919e-008
Heightened Def Con from 1.0992e-008 to 1.0992e-008
Heightened Def Con from 1.0992e-008 to 1.09921e-008
Heightened Def Con from 1.09921e-008 to 1.09921e-008
Heightened Def Con from 1.09921e-008 to 1.09921e-008
Heightened Def Con from 1.09921e-008 to 1.09924e-008
Heightened Def Con from 1.09924e-008 to 1.09924e-008
Heightened Def Con from 1.09924e-008 to 1.09925e-008
Heightened Def Con from 1.09925e-008 to 1.09926e-008
Heightened Def Con from 1.09926e-008 to 1.09927e-008
Heightened Def Con from 1.09927e-008 to 1.09927e-008
Heightened Def Con from 1.09927e-008 to 1.09927e-008
Heightened Def Con from 1.09927e-008 to 1.09928e-008
Heightened Def Con from 1.09928e-008 to 1.09928e-008
Heightened Def Con from 1.09929e-008 to 1.09929e-008
Heightened Def Con from 1.0993e-008 to 1.09931e-008
Heightened Def Con from 1.09932e-008 +to 1.09932e-008
Heightened Def Con from 1.09932e-008 to 1.09933e-008
Heightened Def Con from 1.09933e-008 to 1.09934e-008
Heightened Def Con from 1.09935e-008 to 1.09935e-008
Heightened Def Con from 1.09935e-008 to 1.09935e-008
Heightened Def Con from 1.09935e-008 to 1.09935e-008
Heightened Def Con from 1.09935e-008 to 1.09935e-008
Heightened Def Con from 1.09935e-008 to 1.09935e-008
Heightened Def Con from 1.09935e-008 to 1.09935e-008
Heightened Def Con from 1.09936e-008 to 1.09936e-008
Heightened Def Con from 1.09937e-008 to 1.09937e-008
Heightened Def Con from 1.09937e-008 to 1.0994e-008
Heightened Def Con from 1.09941e-008 to 1.09941e-008
Heightened Def Con from 1.09941e-008 to 1.09941e-008
Heightened Def Con from 1.09941e-008 to 1.09941e-008
[...]
Heightened Def Con from 1.08511e-007 to 1.08511e-007
Heightened Def Con from 1.08511e-007 to 1.08511e-007
Heightened Def Con from 1.08511e-007 to 1.08511e-007
Heightened Def Con from 1.08511e-007 to 1.08511e-007
Heightened Def Con from 1.08511e-007 to 1.08511e-007
Heightened Def Con from 1.08511e-007 +to 1.08511e-007
Heightened Def Con from 1.08511e-007 +to 1.08511e-007
Heightened Def Con from 1.08511e-007 to 1.08511e-007
Heightened Def Con from 1.08511e-007 to 1.08511e-007
Heightened Def Con from 1.08511e-007 to 1.08511e-007
Heightened Def Con from 1.08511e-007 to 1.08511e-007
Heightened Def Con from 1.08511e-007 ++to 1.08511e-007
Heightened Def Con from 1.08511e-007 to 1.08511e-007
Heightened Def Con from 1.08511e-007 to 1.08511e-007
Heightened Def Con from 1.08511e-007 +to 1.08511e-007
Heightened Def Con from 1.08511e-007 to 1.08511e-007
Heightened Def Con from 1.08511e-007 to 1.08511e-007
Heightened Def Con from 1.08511e-007 to 1.08511e-007
Heightened Def Con from 1.08512e-007 to 1.08512e-007
Heightened Def Con from 1.08512e-007 to 1.08512e-007
Heightened Def Con from 1.08512e-007 to 1.08512e-007
Heightened Def Con from 1.08512e-007 to 1.08512e-007
Heightened Def Con from 1.08512e-007 to 1.08512e-007
Heightened Def Con from 1.08512e-007 to 1.08512e-007
Heightened Def Con from 1.08512e-007 to 1.08512e-007
Heightened Def Con from 1.08512e-007 to 1.08512e-007
Heightened Def Con from 1.08512e-007 to 1.08512e-007
Heightened Def Con from 1.08512e-007 to 1.08512e-007
Heightened Def Con from 1.08512e-007 to 1.08512e-007
Heightened Def Con from 1.08512e-007 to 1.08512e-007
Heightened Def Con from 1.08512e-007 to 1.08512e-007
Heightened Def Con from 1.08512e-007 to 1.08512e-007
Heightened Def Con from 1.08512e-007 to 1.08512e-007
Heightened Def Con from 1.08512e-007 to 1.08512e-007
Heightened Def Con from 1.08512e-007 +to 1.08512e-007
Heightened Def Con from 1.08513e-007 to 1.08513e-007
Heightened Def Con from 1.08513e-007 to 1.08513e-007
Heightened Def Con from 1.08513e-007 to 1.08513e-007
Heightened Def Con from 1.08513e-007 to 1.08513e-007
Heightened Def Con from 1.08513e-007 to 1.08513e-007
Heightened Def Con from 1.08513e-007 to 1.08513e-007
Heightened Def Con from 1.08513e-007 to 1.08513e-007
Heightened Def Con from 1.08513e-007 to 1.08513e-007
Heightened Def Con from 1.08513e-007 to 1.08513e-007
Heightened Def Con from 1.08513e-007 to 1.08513e-007
Heightened Def Con from 1.08513e-007 to 1.08513e-007
Heightened Def Con from 1.08513e-007 to 1.08513e-007
Heightened Def Con from 1.08513e-007 to 1.08513e-007
Heightened Def Con from 1.08513e-007 +to 1.08513e-007
Heightened Def Con from 1.08513e-007 +to 1.08529e-007
Heightened Def Con from 1.08529e-007 to 1.08529e-007
Heightened Def Con from 1.08529e-007 to 1.08529e-007
Heightened Def Con from 1.08529e-007 to 1.08529e-007
Heightened Def Con from 1.08529e-007 to 1.08529e-007
Heightened Def Con from 1.08529e-007 to 1.0853e-007
Heightened Def Con from 1.0853e-007 to 1.0853e-007
Heightened Def Con from 1.0853e-007 to 1.0853e-007
Heightened Def Con from 1.0853e-007 to 1.0853e-007
Heightened Def Con from 1.0853e-007 to 1.0853e-007
Heightened Def Con from 1.0853e-007 to 1.0853e-007
Heightened Def Con from 1.0853e-007 to 1.0853e-007
Heightened Def Con from 1.0853e-007 to 1.0853e-007
Heightened Def Con from 1.0853e-007 to 1.08531e-007
Heightened Def Con from 1.08531e-007 to 1.08531e-007
Heightened Def Con from 1.08531e-007 to 1.08531e-007
Heightened Def Con from 1.08531e-007 to 1.08531e-007
Heightened Def Con from 1.08531e-007 to 1.08532e-007
Heightened Def Con from 1.08532e-007 to 1.08532e-007
Heightened Def Con from 1.08532e-007 to 1.08532e-007
Heightened Def Con from 1.08532e-007 to 1.08532e-007
Heightened Def Con from 1.08532e-007 to 1.08532e-007
Heightened Def Con from 1.08532e-007 to 1.08532e-007
Heightened Def Con from 1.08532e-007 to 1.08532e-007
Heightened Def Con from 1.08532e-007 to 1.08532e-007
Heightened Def Con from 1.08532e-007 to 1.08532e-007
Heightened Def Con from 1.08532e-007 to 1.08532e-007
Heightened Def Con from 1.08532e-007 to 1.08532e-007
Heightened Def Con from 1.08532e-007 to 1.08532e-007
Heightened Def Con from 1.08532e-007 to 1.08532e-007
Heightened Def Con from 1.08532e-007 to 1.08532e-007
Heightened Def Con from 1.08533e-007 to 1.08533e-007
Heightened Def Con from 1.08533e-007 to 1.08533e-007
Heightened Def Con from 1.08533e-007 to 1.08533e-007
Heightened Def Con from 1.08533e-007 to 1.08533e-007
Heightened Def Con from 1.08533e-007 to 1.08533e-007
Heightened Def Con from 1.08533e-007 +to 1.08533e-007
Heightened Def Con from 1.08533e-007 to 1.08533e-007
Heightened Def Con from 1.08533e-007 to 1.08533e-007
Heightened Def Con from 1.08533e-007 to 1.08533e-007
Heightened Def Con from 1.08533e-007 to 1.08533e-007
Heightened Def Con from 1.08533e-007 to 1.08533e-007
Heightened Def Con from 1.08533e-007 to 1.08533e-007
Heightened Def Con from 1.08533e-007 to 1.08533e-007
Heightened Def Con from 1.08533e-007 to 1.08533e-007
Heightened Def Con from 1.08533e-007 to 1.08533e-007
Heightened Def Con from 1.08533e-007 to 1.08533e-007
Heightened Def Con from 1.08533e-007 to 1.08533e-007
Heightened Def Con from 1.08533e-007 to 1.08533e-007
Heightened Def Con from 1.08533e-007 to 1.08533e-007
Heightened Def Con from 1.08533e-007 to 1.08533e-007
Heightened Def Con from 1.08534e-007 to 1.08534e-007
Heightened Def Con from 1.08534e-007 to 1.08534e-007
Heightened Def Con from 1.08534e-007 to 1.08534e-007
Heightened Def Con from 1.08534e-007 to 1.08534e-007
Heightened Def Con from 1.08534e-007 to 1.08534e-007
Heightened Def Con from 1.08534e-007 to 1.08534e-007
Heightened Def Con from 1.08534e-007 to 1.08534e-007
Heightened Def Con from 1.08534e-007 to 1.08534e-007
Heightened Def Con from 1.08534e-007 to 1.08534e-007
Heightened Def Con from 1.08534e-007 to 1.08534e-007
Heightened Def Con from 1.08534e-007 +to 1.08534e-007
Heightened Def Con from 1.08534e-007 to 1.08534e-007
Heightened Def Con from 1.08534e-007 to 1.08534e-007
Heightened Def Con from 1.08534e-007 to 1.08534e-007
Heightened Def Con from 1.08534e-007 to 1.08534e-007
Heightened Def Con from 1.08534e-007 to 1.08535e-007
Heightened Def Con from 1.08535e-007 to 1.08535e-007
Heightened Def Con from 1.08535e-007 to 1.08535e-007
Heightened Def Con from 1.08535e-007 to 1.08535e-007
Heightened Def Con from 1.08535e-007 to 1.08535e-007
Heightened Def Con from 1.08535e-007 to 1.08535e-007
Heightened Def Con from 1.08535e-007 to 1.08535e-007
Heightened Def Con from 1.08535e-007 to 1.08535e-007
Heightened Def Con from 1.08535e-007 to 1.08535e-007
Heightened Def Con from 1.08535e-007 to 1.08535e-007
Heightened Def Con from 1.08535e-007 to 1.08535e-007
Heightened Def Con from 1.08535e-007 to 1.08535e-007
Heightened Def Con from 1.08535e-007 to 1.08535e-007
Heightened Def Con from 1.08535e-007 to 1.08535e-007
Heightened Def Con from 1.08535e-007 to 1.08535e-007
Heightened Def Con from 1.08535e-007 to 1.08535e-007
Heightened Def Con from 1.08535e-007 to 1.08535e-007
Heightened Def Con from 1.08535e-007 to 1.08535e-007
Heightened Def Con from 1.08535e-007 to 1.08535e-007
Heightened Def Con from 1.08535e-007 to 1.08535e-007
Heightened Def Con from 1.08535e-007 to 1.08536e-007
Heightened Def Con from 1.08536e-007 +to 1.08536e-007
Heightened Def Con from 1.08536e-007 to 1.08536e-007
Heightened Def Con from 1.08536e-007 to 1.08536e-007
Heightened Def Con from 1.08536e-007 to 1.08536e-007
Heightened Def Con from 1.08536e-007 to 1.08536e-007
Heightened Def Con from 1.08536e-007 to 1.08536e-007
Heightened Def Con from 1.08536e-007 to 1.08536e-007
Heightened Def Con from 1.08536e-007 to 1.08536e-007
Heightened Def Con from 1.08536e-007 to 1.08536e-007
Heightened Def Con from 1.08536e-007 to 1.08536e-007
Heightened Def Con from 1.08536e-007 to 1.08536e-007
Heightened Def Con from 1.08536e-007 +to 1.08536e-007
Heightened Def Con from 1.08536e-007 to 1.08536e-007
Heightened Def Con from 1.08536e-007 to 1.08536e-007
Heightened Def Con from 1.08536e-007 to 1.08536e-007
Heightened Def Con from 1.08536e-007 to 1.08536e-007
Heightened Def Con from 1.08536e-007 to 1.08536e-007
Heightened Def Con from 1.08536e-007 to 1.08536e-007
Heightened Def Con from 1.08536e-007 to 1.08536e-007
Heightened Def Con from 1.08536e-007 to 1.08536e-007
Heightened Def Con from 1.08536e-007 to 1.08536e-007
Heightened Def Con from 1.08536e-007 to 1.08536e-007
Heightened Def Con from 1.08536e-007 +to 1.08536e-007
Heightened Def Con from 1.08536e-007 to 1.08536e-007
Heightened Def Con from 1.08536e-007 +to 1.08536e-007
Heightened Def Con from 1.08536e-007 to 1.08536e-007
Heightened Def Con from 1.08536e-007 to 1.08536e-007
Heightened Def Con from 1.08536e-007 to 1.08536e-007
Heightened Def Con from 1.08536e-007 to 1.08536e-007
Heightened Def Con from 1.08536e-007 to 1.08537e-007
Heightened Def Con from 1.08537e-007 to 1.08537e-007
Heightened Def Con from 1.08537e-007 to 1.08537e-007
Heightened Def Con from 1.08537e-007 to 1.08537e-007
Heightened Def Con from 1.08537e-007 to 1.08537e-007
Heightened Def Con from 1.08537e-007 to 1.08537e-007
Heightened Def Con from 1.08537e-007 to 1.08537e-007
Heightened Def Con from 1.08537e-007 to 1.08537e-007
Heightened Def Con from 1.08537e-007 to 1.08537e-007
Heightened Def Con from 1.08537e-007 to 1.08537e-007
Heightened Def Con from 1.08537e-007 to 1.08537e-007
Heightened Def Con from 1.08537e-007 to 1.08537e-007
Heightened Def Con from 1.08537e-007 to 1.08537e-007
Heightened Def Con from 1.08537e-007 +to 1.08537e-007
Heightened Def Con from 1.08537e-007 to 1.08537e-007
Heightened Def Con from 1.08537e-007 to 1.08538e-007
Heightened Def Con from 1.08538e-007 to 1.08538e-007
Heightened Def Con from 1.08538e-007 to 1.08538e-007
Heightened Def Con from 1.08538e-007 to 1.08538e-007
Heightened Def Con from 1.08538e-007 to 1.08538e-007
Heightened Def Con from 1.08538e-007 to 1.08538e-007
Heightened Def Con from 1.08538e-007 to 1.08538e-007
Heightened Def Con from 1.08538e-007 to 1.08538e-007
Heightened Def Con from 1.08538e-007 to 1.08553e-007
Heightened Def Con from 1.08553e-007 +to 1.08553e-007
Heightened Def Con from 1.08553e-007 +to 1.08554e-007
Heightened Def Con from 1.08554e-007 +to 1.08554e-007
Heightened Def Con from 1.08554e-007 to 1.08554e-007
Heightened Def Con from 1.08554e-007 to 1.08554e-007
Heightened Def Con from 1.08554e-007 +to 1.08554e-007
Heightened Def Con from 1.08554e-007 to 1.08554e-007
Heightened Def Con from 1.08554e-007 to 1.08554e-007
Heightened Def Con from 1.08554e-007 to 1.08554e-007
Heightened Def Con from 1.08554e-007 to 1.08554e-007
Heightened Def Con from 1.08554e-007 to 1.08554e-007
Heightened Def Con from 1.08554e-007 to 1.08554e-007
Heightened Def Con from 1.08554e-007 to 1.08554e-007
Heightened Def Con from 1.08554e-007 to 1.08554e-007
Heightened Def Con from 1.08554e-007 to 1.08554e-007
Heightened Def Con from 1.08554e-007 to 1.08554e-007
Heightened Def Con from 1.08554e-007 to 1.08554e-007
Heightened Def Con from 1.08554e-007 to 1.08554e-007
Heightened Def Con from 1.08554e-007 to 1.08554e-007
Heightened Def Con from 1.08554e-007 to 1.08554e-007
Heightened Def Con from 1.08554e-007 to 1.08554e-007
Heightened Def Con from 1.08555e-007 to 1.08555e-007
Heightened Def Con from 1.08555e-007 to 1.08555e-007
Heightened Def Con from 1.08555e-007 to 1.08555e-007
Heightened Def Con from 1.08555e-007 to 1.08555e-007
Heightened Def Con from 1.08555e-007 to 1.08555e-007
Heightened Def Con from 1.08555e-007 to 1.08555e-007
Heightened Def Con from 1.08555e-007 to 1.08555e-007
Heightened Def Con from 1.08555e-007 to 1.08555e-007
Heightened Def Con from 1.08555e-007 to 1.08555e-007
Heightened Def Con from 1.08555e-007 to 1.08555e-007
Heightened Def Con from 1.08555e-007 to 1.08555e-007
Heightened Def Con from 1.08555e-007 to 1.08555e-007
Heightened Def Con from 1.08555e-007 to 1.08555e-007
Heightened Def Con from 1.08555e-007 to 1.08555e-007
Heightened Def Con from 1.08555e-007 to 1.08555e-007
Heightened Def Con from 1.08555e-007 to 1.08555e-007
Heightened Def Con from 1.08555e-007 to 1.08555e-007
Heightened Def Con from 1.08555e-007 ++to 1.08555e-007
Heightened Def Con from 1.08555e-007 to 1.08555e-007
Heightened Def Con from 1.08555e-007 +to 1.08555e-007
Heightened Def Con from 1.08555e-007 to 1.08555e-007
Heightened Def Con from 1.08555e-007 to 1.08555e-007
Heightened Def Con from 1.08555e-007 to 1.08555e-007
Heightened Def Con from 1.08555e-007 to 1.08555e-007
Heightened Def Con from 1.08555e-007 to 1.08555e-007
Heightened Def Con from 1.08555e-007 to 1.08555e-007
Heightened Def Con from 1.08555e-007 to 1.08555e-007
Heightened Def Con from 1.08555e-007 to 1.08555e-007
Heightened Def Con from 1.08555e-007 to 1.08555e-007
Heightened Def Con from 1.08555e-007 to 1.08555e-007
Heightened Def Con from 1.08555e-007 to 1.08555e-007
Heightened Def Con from 1.08556e-007 to 1.08556e-007
Heightened Def Con from 1.08556e-007 to 1.08556e-007
Heightened Def Con from 1.08556e-007 to 1.08556e-007
Heightened Def Con from 1.08556e-007 to 1.08556e-007
Heightened Def Con from 1.08556e-007 to 1.08556e-007
Heightened Def Con from 1.08556e-007 to 1.08556e-007
Heightened Def Con from 1.08556e-007 to 1.08556e-007
Heightened Def Con from 1.08556e-007 to 1.08556e-007
Heightened Def Con from 1.08556e-007 to 1.08556e-007
Heightened Def Con from 1.08556e-007 to 1.08556e-007
Heightened Def Con from 1.08556e-007 +to 1.08556e-007
Heightened Def Con from 1.08556e-007 to 1.08556e-007
Heightened Def Con from 1.08556e-007 to 1.08556e-007
Heightened Def Con from 1.08556e-007 to 1.08556e-007
Heightened Def Con from 1.08556e-007 to 1.08556e-007
Heightened Def Con from 1.08556e-007 to 1.08556e-007
Heightened Def Con from 1.08556e-007 to 1.08557e-007
Heightened Def Con from 1.08557e-007 +to 1.08557e-007
Heightened Def Con from 1.08557e-007 to 1.08557e-007
Heightened Def Con from 1.08557e-007 to 1.08557e-007
Heightened Def Con from 1.08557e-007 to 1.08557e-007
Heightened Def Con from 1.08557e-007 to 1.08557e-007
Heightened Def Con from 1.08557e-007 to 1.08557e-007
Heightened Def Con from 1.08557e-007 to 1.08557e-007
Heightened Def Con from 1.08557e-007 to 1.08557e-007
Heightened Def Con from 1.08557e-007 to 1.08557e-007
Heightened Def Con from 1.08557e-007 +to 1.08557e-007
Heightened Def Con from 1.08557e-007 to 1.08557e-007
Heightened Def Con from 1.08557e-007 to 1.08557e-007
Heightened Def Con from 1.08557e-007 to 1.08557e-007
Heightened Def Con from 1.08557e-007 to 1.08557e-007
Heightened Def Con from 1.08557e-007 to 1.08557e-007
Heightened Def Con from 1.08557e-007 to 1.08557e-007
Heightened Def Con from 1.08557e-007 +to 1.08557e-007
Heightened Def Con from 1.08557e-007 to 1.08557e-007
Heightened Def Con from 1.08557e-007 to 1.08557e-007
Heightened Def Con from 1.08557e-007 to 1.08557e-007
Heightened Def Con from 1.08557e-007 to 1.08558e-007
Heightened Def Con from 1.08558e-007 to 1.08558e-007
Heightened Def Con from 1.08558e-007 to 1.08558e-007
Heightened Def Con from 1.08558e-007 to 1.08558e-007
Heightened Def Con from 1.08558e-007 to 1.08558e-007
Heightened Def Con from 1.08558e-007 to 1.0856e-007
Heightened Def Con from 1.0856e-007 to 1.0856e-007
Heightened Def Con from 1.0856e-007 +to 1.0856e-007
Heightened Def Con from 1.0856e-007 to 1.08685e-007
Heightened Def Con from 1.08685e-007 ++to 1.08686e-007
Heightened Def Con from 1.08686e-007 to 1.08686e-007
Heightened Def Con from 1.08686e-007 to 1.08686e-007
Heightened Def Con from 1.08686e-007 to 1.08686e-007
Heightened Def Con from 1.08686e-007 to 1.08687e-007
Heightened Def Con from 1.08687e-007 to 1.08687e-007
Heightened Def Con from 1.08688e-007 to 1.08688e-007
Heightened Def Con from 1.08688e-007 to 1.08688e-007
Heightened Def Con from 1.08688e-007 to 1.08688e-007
Heightened Def Con from 1.08688e-007 to 1.08688e-007
Heightened Def Con from 1.08688e-007 to 1.08688e-007
Heightened Def Con from 1.08688e-007 to 1.08688e-007
Heightened Def Con from 1.08688e-007 to 1.08689e-007
Heightened Def Con from 1.08689e-007 to 1.08689e-007
Heightened Def Con from 1.08689e-007 to 1.08689e-007
Heightened Def Con from 1.08689e-007 to 1.08689e-007
Heightened Def Con from 1.08689e-007 to 1.08689e-007
Heightened Def Con from 1.08689e-007 to 1.08689e-007
Heightened Def Con from 1.08689e-007 to 1.08689e-007
Heightened Def Con from 1.08689e-007 to 1.08689e-007
Heightened Def Con from 1.08689e-007 to 1.08689e-007
Heightened Def Con from 1.0869e-007 to 1.0869e-007
Heightened Def Con from 1.0869e-007 to 1.0869e-007
Heightened Def Con from 1.0869e-007 to 1.0869e-007
Heightened Def Con from 1.0869e-007 to 1.0869e-007
Heightened Def Con from 1.0869e-007 +to 1.0869e-007
Heightened Def Con from 1.0869e-007 to 1.0869e-007
Heightened Def Con from 1.0869e-007 to 1.0869e-007
Heightened Def Con from 1.0869e-007 to 1.0869e-007
Heightened Def Con from 1.0869e-007 +to 1.08816e-007
Heightened Def Con from 1.08816e-007 to 1.08816e-007
Heightened Def Con from 1.08816e-007 +to 1.08816e-007
Heightened Def Con from 1.08816e-007 to 1.08816e-007
Heightened Def Con from 1.08816e-007 to 1.08816e-007
Heightened Def Con from 1.08816e-007 to 1.08816e-007
Heightened Def Con from 1.08816e-007 +to 1.08816e-007
Heightened Def Con from 1.08816e-007 to 1.08816e-007
Heightened Def Con from 1.08816e-007 to 1.08816e-007
Heightened Def Con from 1.08816e-007 to 1.08816e-007
Heightened Def Con from 1.08816e-007 to 1.08816e-007
Heightened Def Con from 1.08816e-007 to 1.08816e-007
Heightened Def Con from 1.08816e-007 to 1.08816e-007
Heightened Def Con from 1.08816e-007 to 1.08816e-007
Heightened Def Con from 1.08816e-007 to 1.08816e-007
Heightened Def Con from 1.08816e-007 to 1.08816e-007
Heightened Def Con from 1.08816e-007 +to 1.08816e-007
Heightened Def Con from 1.08816e-007 +to 1.08816e-007
Heightened Def Con from 1.08816e-007 to 1.08816e-007
Heightened Def Con from 1.08816e-007 +to 1.08816e-007
Heightened Def Con from 1.08816e-007 to 1.08816e-007
Heightened Def Con from 1.08816e-007 to 1.08816e-007
Heightened Def Con from 1.08816e-007 to 1.08816e-007
Heightened Def Con from 1.08816e-007 +to 1.08816e-007
Heightened Def Con from 1.08816e-007 to 1.08816e-007
Heightened Def Con from 1.08816e-007 ++to 1.08817e-007
Heightened Def Con from 1.08817e-007 to 1.08817e-007
Heightened Def Con from 1.08817e-007 to 1.08817e-007
Heightened Def Con from 1.08817e-007 to 1.08817e-007
Heightened Def Con from 1.08817e-007 to 1.08817e-007
Heightened Def Con from 1.08817e-007 to 1.08817e-007
Heightened Def Con from 1.08817e-007 ++to 1.08817e-007
Heightened Def Con from 1.08817e-007 to 1.08817e-007
Heightened Def Con from 1.08817e-007 to 1.08817e-007
Heightened Def Con from 1.08817e-007 to 1.08817e-007
Heightened Def Con from 1.08817e-007 +to 1.08817e-007
Heightened Def Con from 1.08817e-007 to 1.08817e-007
Heightened Def Con from 1.08817e-007 to 1.08817e-007
Heightened Def Con from 1.08817e-007 +to 1.08817e-007
Heightened Def Con from 1.08817e-007 to 1.08817e-007
Heightened Def Con from 1.08817e-007 to 1.08817e-007
Heightened Def Con from 1.08817e-007 to 1.08817e-007
Heightened Def Con from 1.08818e-007 to 1.08818e-007
Heightened Def Con from 1.08818e-007 to 1.08818e-007
Heightened Def Con from 1.08818e-007 to 1.08818e-007
Heightened Def Con from 1.08818e-007 +to 1.08818e-007
Heightened Def Con from 1.08818e-007 to 1.08818e-007
Heightened Def Con from 1.08818e-007 to 1.08818e-007
Heightened Def Con from 1.08818e-007 to 1.08818e-007
Heightened Def Con from 1.08819e-007 to 1.08819e-007
Heightened Def Con from 1.08819e-007 to 1.08819e-007
Heightened Def Con from 1.08819e-007 to 1.08819e-007
Heightened Def Con from 1.08819e-007 to 1.08819e-007
Heightened Def Con from 1.08819e-007 to 1.08819e-007

Date: Fri May 12 11:47:51 2023
Total elapsed time: 43.381 seconds.

tnom = 27
temp = 27
method = modified trap
totiter = 7121342
traniter = 7117934
tranpoints = 805749
accept = 320158
rejected = 522539
matrix size = 36
fillins = 42
solver = Normal
Matrix Compiler1: off  2.0/0.8/[0.6]
Matrix Compiler2: 3.44 KB object code size  0.7/0.7/[0.5]

