Circuit: * C:\users\leonardo\Desktop\FSAE\inverter-simulation\inverter-spice.asc

Direct Newton iteration for .op point succeeded.
Heightened Def Con from 1.13964e-007 to 1.19964e-007
Heightened Def Con from 1.3608e-007 to 1.19908e-006
Heightened Def Con from 1.21334e-006 to 1.21734e-006
Heightened Def Con from 1.34141e-006 to 1.35341e-006
Heightened Def Con from 1.35624e-006 to 1.37224e-006
Heightened Def Con from 1.37682e-006 to 1.38082e-006
Heightened Def Con from 1.43128e-006 to 1.43528e-006
Heightened Def Con from 1.61117e-006 to 2.93717e-006
Heightened Def Con from 2.94089e-006 to 2.96989e-006
Heightened Def Con from 3.11881e-006 to 3.13281e-006
Heightened Def Con from 3.27828e-006 to 3.29128e-006
Heightened Def Con from 3.3448e-006 to 3.3538e-006
Heightened Def Con from 3.39335e-006 to 3.43935e-006
Heightened Def Con from 3.57742e-006 to 3.58942e-006
Heightened Def Con from 3.60549e-006 to 3.63449e-006
Heightened Def Con from 3.66518e-006 to 3.67918e-006
Heightened Def Con from 3.68145e-006 to 3.68745e-006

Date: Thu May 11 13:31:00 2023
Total elapsed time: 135.441 seconds.

tnom = 27
temp = 27
method = modified trap
totiter = 53984259
traniter = 53984256
tranpoints = 24506211
accept = 15239016
rejected = 9267212
matrix size = 14
fillins = 15
solver = Normal
Matrix Compiler1:      70 opcodes  0.6/0.3/[0.2]
Matrix Compiler2: 1.23 KB object code size  0.2/0.3/[0.2]

