Circuit: * C:\users\leonardo\Desktop\FSAE\inverter-simulation\inverter-spice.asc

Direct Newton iteration failed to find .op point.  (Use ".option noopiter" to skip.)
Starting Gmin stepping
Gmin = 10
Gmin = 1.07374
Gmin = 0.115292
Gmin = 0.0123794
Gmin = 0.00132923
Gmin = 0.000142725
Gmin = 1.5325e-005
Gmin = 1.6455e-006
Gmin = 1.76685e-007
Gmin = 1.89714e-008
vernier = 0.5
Gmin = 3.18287e-009
vernier = 0.666667
vernier = 0.333333
vernier = 0.166667
Gmin = 1.45338e-009
vernier = 0.0833333
vernier = 0.0416667
vernier = 0.0208333
Gmin = 1.2792e-009
vernier = 0.0104167
vernier = 0.00520833
vernier = 0.00260417
vernier = 0.00130208
vernier = 0.000651042
Gmin = 1.28502e-009
vernier = 0.000868055
vernier = 0.000434028
Gmin = 0
Gmin stepping succeeded in finding the operating point.

Changing Tseed to 1e-010
Changing Tseed to 1e-012
Changing Tseed to 1e-009
Changing Tseed to 1e-013
Changing Tseed to 1e-008
Changing Tseed to 1e-014
Changing Tseed to 1e-007
Heightened Def Con from 1e-007 to 1e-007
Heightened Def Con from 1e-007 to 1e-007
Heightened Def Con from 1e-007 to 1.00125e-007
Heightened Def Con from 1.00125e-007 +to 1.00125e-007
Heightened Def Con from 1.00125e-007 to 1.00125e-007
Heightened Def Con from 1.00125e-007 to 1.00125e-007
Heightened Def Con from 1.00125e-007 +to 1.00125e-007
Heightened Def Con from 1.00125e-007 to 1.00125e-007
Heightened Def Con from 1.00125e-007 to 1.00125e-007
Heightened Def Con from 1.00125e-007 to 1.00125e-007
Heightened Def Con from 1.00125e-007 to 1.00126e-007
Heightened Def Con from 1.00126e-007 to 1.00126e-007
Heightened Def Con from 1.00126e-007 to 1.00126e-007
Heightened Def Con from 1.00126e-007 +to 1.00126e-007
Heightened Def Con from 1.00126e-007 to 1.00126e-007
Heightened Def Con from 1.00126e-007 to 1.00126e-007
Heightened Def Con from 1.00126e-007 to 1.00126e-007
Heightened Def Con from 1.00126e-007 to 1.00126e-007
Heightened Def Con from 1.00126e-007 to 1.00126e-007
Heightened Def Con from 1.00126e-007 to 1.00126e-007
Heightened Def Con from 1.00126e-007 to 1.00126e-007
Heightened Def Con from 1.00126e-007 to 1.00126e-007
Heightened Def Con from 1.00126e-007 to 1.00126e-007
Heightened Def Con from 1.00126e-007 to 1.00126e-007
Heightened Def Con from 1.00126e-007 to 1.00126e-007
Heightened Def Con from 1.00126e-007 to 1.00126e-007
Heightened Def Con from 1.00126e-007 to 1.00126e-007
Heightened Def Con from 1.00126e-007 to 1.00126e-007
Heightened Def Con from 1.00126e-007 to 1.00126e-007
Heightened Def Con from 1.00126e-007 to 1.00126e-007
Heightened Def Con from 1.00126e-007 to 1.00126e-007
Heightened Def Con from 1.00126e-007 +to 1.00127e-007
Heightened Def Con from 1.00127e-007 to 1.00127e-007
Heightened Def Con from 1.00127e-007 to 1.00127e-007
Heightened Def Con from 1.00127e-007 to 1.00127e-007
Heightened Def Con from 1.00127e-007 to 1.00127e-007
Heightened Def Con from 1.00127e-007 to 1.00127e-007
Heightened Def Con from 1.00127e-007 to 1.00127e-007
Heightened Def Con from 1.00127e-007 to 1.00127e-007
Heightened Def Con from 1.00127e-007 to 1.00127e-007
Heightened Def Con from 1.00127e-007 +to 1.00127e-007
Heightened Def Con from 1.00127e-007 to 1.00127e-007
Heightened Def Con from 1.00127e-007 to 1.00127e-007
Heightened Def Con from 1.00127e-007 to 1.00127e-007
Heightened Def Con from 1.00127e-007 to 1.00127e-007
Heightened Def Con from 1.00127e-007 to 1.00127e-007
Heightened Def Con from 1.00127e-007 +to 1.00127e-007
Heightened Def Con from 1.00127e-007 +to 1.00127e-007
Heightened Def Con from 1.00127e-007 to 1.00127e-007
Heightened Def Con from 1.00127e-007 to 1.00127e-007
Heightened Def Con from 1.00127e-007 +to 1.00127e-007
Heightened Def Con from 1.00127e-007 to 1.00127e-007
Heightened Def Con from 1.00127e-007 to 1.00127e-007
Heightened Def Con from 1.00127e-007 to 1.00127e-007
Heightened Def Con from 1.00127e-007 to 1.00127e-007
Heightened Def Con from 1.00127e-007 +to 1.01127e-007
Heightened Def Con from 1.01127e-007 to 1.01128e-007
Heightened Def Con from 1.01128e-007 to 1.01128e-007
Heightened Def Con from 1.01128e-007 to 1.01128e-007
Heightened Def Con from 1.01128e-007 to 1.01128e-007
Heightened Def Con from 1.01128e-007 to 1.01129e-007
Heightened Def Con from 1.01129e-007 to 1.01129e-007
Heightened Def Con from 1.01129e-007 to 1.01129e-007
Heightened Def Con from 1.01129e-007 to 1.01129e-007
Heightened Def Con from 1.01129e-007 to 1.01129e-007
Heightened Def Con from 1.01129e-007 to 1.01129e-007
Heightened Def Con from 1.0113e-007 to 1.0113e-007
Heightened Def Con from 1.0113e-007 to 1.0113e-007
Heightened Def Con from 1.0113e-007 to 1.0113e-007
Heightened Def Con from 1.0113e-007 to 1.0113e-007
Heightened Def Con from 1.0113e-007 to 1.0113e-007
Heightened Def Con from 1.0113e-007 to 1.0113e-007
Heightened Def Con from 1.0113e-007 to 1.0113e-007
Heightened Def Con from 1.0113e-007 to 1.0113e-007
Heightened Def Con from 1.0113e-007 to 1.0113e-007
Heightened Def Con from 1.0113e-007 to 1.0113e-007
Heightened Def Con from 1.0113e-007 to 1.0113e-007
Heightened Def Con from 1.0113e-007 to 1.01131e-007
Heightened Def Con from 1.01131e-007 to 1.01131e-007
Heightened Def Con from 1.01131e-007 to 1.01131e-007
Heightened Def Con from 1.01131e-007 to 1.01131e-007
Heightened Def Con from 1.01131e-007 to 1.01131e-007
Heightened Def Con from 1.01131e-007 to 1.01131e-007
Heightened Def Con from 1.01131e-007 to 1.01131e-007
Heightened Def Con from 1.01131e-007 to 1.01131e-007
Heightened Def Con from 1.01131e-007 to 1.01131e-007
Heightened Def Con from 1.01131e-007 to 1.01131e-007
Heightened Def Con from 1.01131e-007 to 1.01131e-007
Heightened Def Con from 1.01131e-007 to 1.01131e-007
Heightened Def Con from 1.01131e-007 to 1.01131e-007
Heightened Def Con from 1.01131e-007 to 1.01131e-007
Heightened Def Con from 1.01131e-007 to 1.01132e-007
Heightened Def Con from 1.01132e-007 to 1.01132e-007
Heightened Def Con from 1.01132e-007 to 1.01132e-007
Heightened Def Con from 1.01132e-007 to 1.01132e-007
Heightened Def Con from 1.01132e-007 to 1.01132e-007
Heightened Def Con from 1.01132e-007 to 1.01132e-007
Heightened Def Con from 1.01132e-007 to 1.01132e-007
Heightened Def Con from 1.01132e-007 to 1.01132e-007
Heightened Def Con from 1.01132e-007 to 1.01132e-007
Heightened Def Con from 1.01132e-007 to 1.01132e-007
Heightened Def Con from 1.01132e-007 to 1.01132e-007
Heightened Def Con from 1.01132e-007 to 1.01134e-007
Heightened Def Con from 1.01134e-007 to 1.01134e-007
Heightened Def Con from 1.01134e-007 to 1.01134e-007
Heightened Def Con from 1.01134e-007 to 1.01134e-007
Heightened Def Con from 1.01134e-007 to 1.01134e-007
Heightened Def Con from 1.01134e-007 to 1.01134e-007
Heightened Def Con from 1.01134e-007 to 1.01134e-007
Heightened Def Con from 1.01134e-007 +to 1.01135e-007
Heightened Def Con from 1.01135e-007 to 1.01135e-007
Heightened Def Con from 1.01135e-007 to 1.01135e-007
Heightened Def Con from 1.01135e-007 to 1.01135e-007
Heightened Def Con from 1.01135e-007 to 1.01135e-007
Heightened Def Con from 1.01135e-007 to 1.01135e-007
Heightened Def Con from 1.01135e-007 to 1.01135e-007
Heightened Def Con from 1.01135e-007 to 1.01135e-007
Heightened Def Con from 1.01135e-007 to 1.01135e-007
Heightened Def Con from 1.01135e-007 to 1.01135e-007
Heightened Def Con from 1.01135e-007 to 1.01135e-007
Heightened Def Con from 1.01135e-007 +to 1.01135e-007
Heightened Def Con from 1.01135e-007 to 1.01135e-007
Heightened Def Con from 1.01135e-007 to 1.01135e-007
Heightened Def Con from 1.01135e-007 to 1.01137e-007
Heightened Def Con from 1.01137e-007 to 1.01137e-007
Heightened Def Con from 1.01137e-007 to 1.01137e-007
Heightened Def Con from 1.01137e-007 to 1.01137e-007
Heightened Def Con from 1.01137e-007 to 1.01137e-007
Heightened Def Con from 1.01137e-007 to 1.01137e-007
Heightened Def Con from 1.01137e-007 to 1.01137e-007
Heightened Def Con from 1.01137e-007 to 1.01137e-007
Heightened Def Con from 1.01137e-007 to 1.01137e-007
Heightened Def Con from 1.01137e-007 to 1.01137e-007
Heightened Def Con from 1.01137e-007 to 1.01137e-007
Heightened Def Con from 1.01137e-007 +to 1.01137e-007
Heightened Def Con from 1.01137e-007 to 1.01137e-007
Heightened Def Con from 1.01137e-007 to 1.01137e-007
Heightened Def Con from 1.01137e-007 to 1.01137e-007
Heightened Def Con from 1.01137e-007 to 1.01137e-007
Heightened Def Con from 1.01137e-007 to 1.01137e-007
Heightened Def Con from 1.01137e-007 to 1.01137e-007
Heightened Def Con from 1.01137e-007 +to 1.01137e-007
Heightened Def Con from 1.01137e-007 to 1.01137e-007
Heightened Def Con from 1.01137e-007 to 1.01137e-007
Heightened Def Con from 1.01137e-007 to 1.01137e-007
Heightened Def Con from 1.01137e-007 +to 1.01137e-007
Heightened Def Con from 1.01137e-007 to 1.01137e-007
Heightened Def Con from 1.01138e-007 to 1.01138e-007
Heightened Def Con from 1.01138e-007 to 1.01138e-007
Heightened Def Con from 1.01138e-007 to 1.01138e-007
Heightened Def Con from 1.01138e-007 to 1.01138e-007
Heightened Def Con from 1.01138e-007 to 1.01138e-007
Heightened Def Con from 1.01138e-007 to 1.01138e-007
Heightened Def Con from 1.01138e-007 to 1.01138e-007
Heightened Def Con from 1.01138e-007 to 1.01138e-007
Heightened Def Con from 1.01138e-007 to 1.0114e-007
Heightened Def Con from 1.0114e-007 to 1.0114e-007
Heightened Def Con from 1.0114e-007 to 1.0114e-007
Heightened Def Con from 1.0114e-007 to 1.0114e-007
Heightened Def Con from 1.0114e-007 to 1.0114e-007
Heightened Def Con from 1.0114e-007 +to 1.0114e-007
Heightened Def Con from 1.0114e-007 +to 1.0114e-007
Heightened Def Con from 1.0114e-007 to 1.0114e-007
Heightened Def Con from 1.0114e-007 to 1.0114e-007
Heightened Def Con from 1.0114e-007 to 1.0114e-007
Heightened Def Con from 1.0114e-007 to 1.0114e-007
Heightened Def Con from 1.0114e-007 to 1.0114e-007
Heightened Def Con from 1.0114e-007 to 1.0114e-007
Heightened Def Con from 1.0114e-007 to 1.0114e-007
Heightened Def Con from 1.0114e-007 to 1.0114e-007
Heightened Def Con from 1.0114e-007 to 1.0114e-007
Heightened Def Con from 1.0114e-007 to 1.0114e-007
Heightened Def Con from 1.0114e-007 to 1.0114e-007
Heightened Def Con from 1.0114e-007 to 1.0114e-007
Heightened Def Con from 1.0114e-007 to 1.0114e-007
Heightened Def Con from 1.0114e-007 to 1.01141e-007
Heightened Def Con from 1.01141e-007 to 1.01141e-007
Heightened Def Con from 1.01141e-007 to 1.01141e-007
Heightened Def Con from 1.01141e-007 to 1.01141e-007
Heightened Def Con from 1.01141e-007 to 1.01141e-007
Heightened Def Con from 1.01141e-007 to 1.01141e-007
Heightened Def Con from 1.01141e-007 to 1.01141e-007
Heightened Def Con from 1.01141e-007 to 1.01141e-007
Heightened Def Con from 1.01141e-007 to 1.01141e-007
Heightened Def Con from 1.01141e-007 to 1.01143e-007
Heightened Def Con from 1.01143e-007 to 1.01143e-007
Heightened Def Con from 1.01143e-007 to 1.01143e-007
Heightened Def Con from 1.01143e-007 to 1.01159e-007
Heightened Def Con from 1.01159e-007 to 1.01159e-007
Heightened Def Con from 1.01159e-007 to 1.01159e-007
Heightened Def Con from 1.01159e-007 to 1.01159e-007
Heightened Def Con from 1.01159e-007 to 1.01159e-007
Heightened Def Con from 1.01159e-007 to 1.01159e-007
Heightened Def Con from 1.01159e-007 to 1.01159e-007
Heightened Def Con from 1.01159e-007 to 1.01159e-007
Heightened Def Con from 1.01159e-007 to 1.01159e-007
Heightened Def Con from 1.01159e-007 to 1.01159e-007
Heightened Def Con from 1.01159e-007 +to 1.01159e-007
Heightened Def Con from 1.01159e-007 to 1.01159e-007
Heightened Def Con from 1.01159e-007 to 1.01159e-007
Heightened Def Con from 1.01159e-007 to 1.01159e-007
Heightened Def Con from 1.01159e-007 to 1.01159e-007
Heightened Def Con from 1.01159e-007 to 1.01159e-007
Heightened Def Con from 1.01159e-007 to 1.01159e-007
Heightened Def Con from 1.01159e-007 +to 1.01159e-007
Heightened Def Con from 1.01159e-007 to 1.01159e-007
Heightened Def Con from 1.01159e-007 +to 1.01159e-007
Heightened Def Con from 1.01159e-007 to 1.0116e-007
Heightened Def Con from 1.0116e-007 to 1.0116e-007
Heightened Def Con from 1.0116e-007 to 1.0116e-007
Heightened Def Con from 1.0116e-007 to 1.0116e-007
Heightened Def Con from 1.0116e-007 to 1.0116e-007
Heightened Def Con from 1.0116e-007 to 1.0116e-007
Heightened Def Con from 1.0116e-007 to 1.0116e-007
Heightened Def Con from 1.0116e-007 to 1.0116e-007
Heightened Def Con from 1.0116e-007 to 1.0116e-007
Heightened Def Con from 1.0116e-007 +to 1.0116e-007
Heightened Def Con from 1.0116e-007 to 1.0116e-007
Heightened Def Con from 1.0116e-007 to 1.01285e-007
Heightened Def Con from 1.01285e-007 to 1.01285e-007
Heightened Def Con from 1.01285e-007 to 1.01285e-007
Heightened Def Con from 1.01285e-007 +to 1.01285e-007
Heightened Def Con from 1.01285e-007 to 1.01286e-007
Heightened Def Con from 1.01286e-007 +to 1.01286e-007
Heightened Def Con from 1.01286e-007 to 1.01286e-007
Heightened Def Con from 1.01286e-007 to 1.01286e-007
Heightened Def Con from 1.01286e-007 to 1.01286e-007
Heightened Def Con from 1.01286e-007 to 1.01286e-007
Heightened Def Con from 1.01286e-007 to 1.01286e-007
Heightened Def Con from 1.01286e-007 to 1.01286e-007
Heightened Def Con from 1.01286e-007 to 1.01286e-007
Heightened Def Con from 1.01286e-007 to 1.01286e-007
Heightened Def Con from 1.01286e-007 to 1.01286e-007
Heightened Def Con from 1.01286e-007 to 1.01286e-007
Heightened Def Con from 1.01286e-007 to 1.01288e-007
Heightened Def Con from 1.01288e-007 to 1.01288e-007
Heightened Def Con from 1.01288e-007 to 1.01288e-007
Heightened Def Con from 1.01288e-007 to 1.01288e-007
Heightened Def Con from 1.01288e-007 to 1.01289e-007
Heightened Def Con from 1.01289e-007 to 1.01289e-007
Heightened Def Con from 1.01289e-007 to 1.01289e-007
Heightened Def Con from 1.01289e-007 to 1.01289e-007
Heightened Def Con from 1.01289e-007 to 1.01289e-007
Heightened Def Con from 1.01289e-007 to 1.01289e-007
Heightened Def Con from 1.01289e-007 to 1.01289e-007
Heightened Def Con from 1.01289e-007 to 1.01289e-007
Heightened Def Con from 1.01289e-007 +to 1.01289e-007
Heightened Def Con from 1.0129e-007 to 1.0129e-007
Heightened Def Con from 1.0129e-007 to 1.0129e-007
Heightened Def Con from 1.0129e-007 to 1.0129e-007
Heightened Def Con from 1.0129e-007 to 1.0129e-007
Heightened Def Con from 1.0129e-007 to 1.0129e-007
Heightened Def Con from 1.0129e-007 to 1.0129e-007
Heightened Def Con from 1.0129e-007 to 1.0129e-007
Heightened Def Con from 1.0129e-007 to 1.0129e-007
Heightened Def Con from 1.0129e-007 to 1.0129e-007
Heightened Def Con from 1.0129e-007 to 1.0129e-007
Heightened Def Con from 1.0129e-007 to 1.0129e-007
Heightened Def Con from 1.0129e-007 +to 1.0129e-007
Heightened Def Con from 1.0129e-007 to 1.0129e-007
Heightened Def Con from 1.0129e-007 to 1.0129e-007
Heightened Def Con from 1.0129e-007 to 1.0129e-007
Heightened Def Con from 1.0129e-007 to 1.0129e-007
Heightened Def Con from 1.0129e-007 to 1.0129e-007
Heightened Def Con from 1.0129e-007 to 1.0129e-007
Heightened Def Con from 1.0129e-007 to 1.0129e-007
Heightened Def Con from 1.0129e-007 to 1.0129e-007
Heightened Def Con from 1.0129e-007 to 1.0129e-007
Heightened Def Con from 1.0129e-007 to 1.0129e-007
Heightened Def Con from 1.0129e-007 to 1.0129e-007
Heightened Def Con from 1.0129e-007 to 1.01291e-007
Heightened Def Con from 1.01291e-007 to 1.01291e-007
Heightened Def Con from 1.01291e-007 to 1.01291e-007
Heightened Def Con from 1.01291e-007 to 1.01291e-007
Heightened Def Con from 1.01291e-007 +to 1.01291e-007
Heightened Def Con from 1.01291e-007 ++to 1.01291e-007
Heightened Def Con from 1.01291e-007 to 1.01291e-007
Heightened Def Con from 1.01291e-007 to 1.01291e-007
Heightened Def Con from 1.01291e-007 to 1.01291e-007
Heightened Def Con from 1.01291e-007 to 1.01291e-007
Heightened Def Con from 1.01291e-007 to 1.01291e-007
Heightened Def Con from 1.01291e-007 to 1.01291e-007
Heightened Def Con from 1.01291e-007 +to 1.01291e-007
Heightened Def Con from 1.01291e-007 +to 1.01292e-007
Heightened Def Con from 1.01292e-007 to 1.01292e-007
Heightened Def Con from 1.01292e-007 to 1.01292e-007
Heightened Def Con from 1.01292e-007 to 1.01292e-007
Heightened Def Con from 1.01292e-007 to 1.01292e-007
Heightened Def Con from 1.01292e-007 to 1.01417e-007
Heightened Def Con from 1.01417e-007 to 1.01417e-007
Heightened Def Con from 1.01417e-007 to 1.01417e-007
Heightened Def Con from 1.01417e-007 to 1.01417e-007
Heightened Def Con from 1.01417e-007 to 1.01417e-007
Heightened Def Con from 1.01417e-007 to 1.01417e-007
Heightened Def Con from 1.01417e-007 to 1.01417e-007
Heightened Def Con from 1.01417e-007 to 1.01417e-007
Heightened Def Con from 1.01417e-007 to 1.01417e-007
Heightened Def Con from 1.01417e-007 to 1.01417e-007
Heightened Def Con from 1.01417e-007 to 1.01417e-007
Heightened Def Con from 1.01417e-007 to 1.01417e-007
Heightened Def Con from 1.01418e-007 to 1.01418e-007
Heightened Def Con from 1.01418e-007 to 1.01418e-007
Heightened Def Con from 1.01418e-007 to 1.01418e-007
Heightened Def Con from 1.01418e-007 to 1.01418e-007
Heightened Def Con from 1.01418e-007 to 1.01418e-007
Heightened Def Con from 1.01418e-007 to 1.01418e-007
Heightened Def Con from 1.01418e-007 to 1.01418e-007
Heightened Def Con from 1.01418e-007 to 1.01418e-007
Heightened Def Con from 1.01418e-007 to 1.01418e-007
Heightened Def Con from 1.01418e-007 to 1.01418e-007
Heightened Def Con from 1.01418e-007 to 1.01418e-007
Heightened Def Con from 1.01418e-007 to 1.01418e-007
Heightened Def Con from 1.01418e-007 to 1.01418e-007
Heightened Def Con from 1.01418e-007 to 1.01418e-007
Heightened Def Con from 1.01418e-007 to 1.01418e-007
Heightened Def Con from 1.01418e-007 to 1.01418e-007
Heightened Def Con from 1.01418e-007 to 1.01418e-007
Heightened Def Con from 1.01418e-007 to 1.01418e-007
Heightened Def Con from 1.01418e-007 to 1.01419e-007
Heightened Def Con from 1.01419e-007 to 1.01419e-007
Heightened Def Con from 1.01419e-007 to 1.01419e-007
Heightened Def Con from 1.01419e-007 to 1.01419e-007
Heightened Def Con from 1.01419e-007 to 1.01419e-007
Heightened Def Con from 1.01419e-007 to 1.01419e-007
Heightened Def Con from 1.01419e-007 to 1.01419e-007
Heightened Def Con from 1.01419e-007 to 1.01419e-007
Heightened Def Con from 1.01419e-007 to 1.01419e-007
Heightened Def Con from 1.01419e-007 to 1.01419e-007
Heightened Def Con from 1.01419e-007 to 1.01419e-007
Heightened Def Con from 1.01419e-007 to 1.01419e-007
Heightened Def Con from 1.01419e-007 to 1.01419e-007
Heightened Def Con from 1.01419e-007 to 1.01419e-007
Heightened Def Con from 1.01419e-007 to 1.01419e-007
Heightened Def Con from 1.0142e-007 to 1.0142e-007
Heightened Def Con from 1.0142e-007 to 1.0142e-007
Heightened Def Con from 1.0142e-007 to 1.0142e-007
Heightened Def Con from 1.0142e-007 to 1.01545e-007
Heightened Def Con from 1.01545e-007 to 1.01545e-007
Heightened Def Con from 1.01545e-007 to 1.01545e-007
Heightened Def Con from 1.01545e-007 to 1.01545e-007
Heightened Def Con from 1.01545e-007 to 1.01545e-007
Heightened Def Con from 1.01545e-007 to 1.01545e-007
Heightened Def Con from 1.01545e-007 to 1.01545e-007
Heightened Def Con from 1.01545e-007 to 1.01545e-007
Heightened Def Con from 1.01545e-007 to 1.01545e-007
Heightened Def Con from 1.01545e-007 to 1.01545e-007
Heightened Def Con from 1.01545e-007 to 1.01545e-007
Heightened Def Con from 1.01545e-007 to 1.01545e-007
Heightened Def Con from 1.01545e-007 to 1.01545e-007
Heightened Def Con from 1.01545e-007 to 1.01545e-007
Heightened Def Con from 1.01545e-007 to 1.01545e-007
Heightened Def Con from 1.01545e-007 to 1.01545e-007
Heightened Def Con from 1.01545e-007 to 1.01545e-007
Heightened Def Con from 1.01545e-007 to 1.01545e-007
Heightened Def Con from 1.01545e-007 to 1.01546e-007
Heightened Def Con from 1.01546e-007 to 1.01546e-007
Heightened Def Con from 1.01546e-007 to 1.01546e-007
Heightened Def Con from 1.01546e-007 to 1.01546e-007
Heightened Def Con from 1.01546e-007 to 1.01546e-007
Heightened Def Con from 1.01546e-007 to 1.01546e-007
Heightened Def Con from 1.01546e-007 to 1.01546e-007
Heightened Def Con from 1.01546e-007 to 1.01546e-007
Heightened Def Con from 1.01546e-007 +to 1.01547e-007
Heightened Def Con from 1.01547e-007 to 1.01547e-007
Heightened Def Con from 1.01547e-007 to 1.01547e-007
Heightened Def Con from 1.01547e-007 to 1.01547e-007
Heightened Def Con from 1.01547e-007 to 1.01547e-007
Heightened Def Con from 1.01547e-007 to 1.01547e-007
Heightened Def Con from 1.01547e-007 to 1.01547e-007
Heightened Def Con from 1.01547e-007 to 1.01547e-007
Heightened Def Con from 1.01547e-007 to 1.01547e-007
Heightened Def Con from 1.01547e-007 to 1.01547e-007
Heightened Def Con from 1.01547e-007 to 1.01547e-007
Heightened Def Con from 1.01547e-007 to 1.01547e-007
Heightened Def Con from 1.01548e-007 to 1.01548e-007
Heightened Def Con from 1.01548e-007 to 1.01548e-007
Heightened Def Con from 1.01548e-007 to 1.01548e-007
Heightened Def Con from 1.01548e-007 to 1.01548e-007
Heightened Def Con from 1.01548e-007 to 1.01548e-007
Heightened Def Con from 1.01548e-007 to 1.01548e-007
Heightened Def Con from 1.01548e-007 +to 1.01548e-007
Heightened Def Con from 1.01548e-007 to 1.01548e-007
Heightened Def Con from 1.01548e-007 to 1.01548e-007
Heightened Def Con from 1.01548e-007 to 1.0155e-007
Heightened Def Con from 1.0155e-007 to 1.0155e-007
Heightened Def Con from 1.0155e-007 to 1.0155e-007
Heightened Def Con from 1.0155e-007 to 1.0155e-007
Heightened Def Con from 1.0155e-007 to 1.0155e-007
Heightened Def Con from 1.0155e-007 to 1.0155e-007
Heightened Def Con from 1.0155e-007 to 1.0155e-007
Heightened Def Con from 1.0155e-007 to 1.0155e-007
Heightened Def Con from 1.0155e-007 to 1.0155e-007
Heightened Def Con from 1.0155e-007 to 1.0155e-007
Heightened Def Con from 1.0155e-007 to 1.0155e-007
Heightened Def Con from 1.0155e-007 to 1.0155e-007
Heightened Def Con from 1.0155e-007 to 1.0155e-007
Heightened Def Con from 1.0155e-007 to 1.0155e-007
Heightened Def Con from 1.0155e-007 to 1.0155e-007
Heightened Def Con from 1.0155e-007 to 1.0155e-007
Heightened Def Con from 1.0155e-007 to 1.0155e-007
Heightened Def Con from 1.0155e-007 to 1.0155e-007
Heightened Def Con from 1.01551e-007 +to 1.01551e-007
Heightened Def Con from 1.01551e-007 to 1.01551e-007
Heightened Def Con from 1.01551e-007 to 1.01551e-007
Heightened Def Con from 1.01551e-007 to 1.01551e-007
Heightened Def Con from 1.01551e-007 to 1.01676e-007
Heightened Def Con from 1.01676e-007 +to 1.01676e-007
Heightened Def Con from 1.01676e-007 to 1.01676e-007
Heightened Def Con from 1.01676e-007 +to 1.01676e-007
Heightened Def Con from 1.01676e-007 to 1.01676e-007
Heightened Def Con from 1.01676e-007 to 1.01676e-007
Heightened Def Con from 1.01676e-007 to 1.01676e-007
Heightened Def Con from 1.01676e-007 to 1.01676e-007
Heightened Def Con from 1.01676e-007 to 1.01676e-007
Heightened Def Con from 1.01676e-007 to 1.01676e-007
Heightened Def Con from 1.01676e-007 to 1.01676e-007
Heightened Def Con from 1.01676e-007 +to 1.01677e-007
Heightened Def Con from 1.01677e-007 to 1.01677e-007
Heightened Def Con from 1.01677e-007 to 1.01677e-007
Heightened Def Con from 1.01677e-007 to 1.01677e-007
Heightened Def Con from 1.01677e-007 to 1.01677e-007
Heightened Def Con from 1.01677e-007 to 1.01677e-007
Heightened Def Con from 1.01677e-007 to 1.01677e-007
Heightened Def Con from 1.01677e-007 to 1.01677e-007
Heightened Def Con from 1.01677e-007 to 1.01677e-007
Heightened Def Con from 1.01677e-007 to 1.01677e-007
Heightened Def Con from 1.01677e-007 to 1.01677e-007
Heightened Def Con from 1.01677e-007 to 1.01677e-007
Heightened Def Con from 1.01677e-007 to 1.01677e-007
Heightened Def Con from 1.01678e-007 to 1.01678e-007
Heightened Def Con from 1.01678e-007 to 1.01678e-007
Heightened Def Con from 1.01678e-007 to 1.01678e-007
Heightened Def Con from 1.01678e-007 to 1.01678e-007
Heightened Def Con from 1.01678e-007 to 1.01678e-007
Heightened Def Con from 1.01678e-007 to 1.01678e-007
Heightened Def Con from 1.01678e-007 to 1.01678e-007
Heightened Def Con from 1.01678e-007 to 1.01678e-007
Heightened Def Con from 1.01678e-007 to 1.01678e-007
Heightened Def Con from 1.01678e-007 +to 1.01678e-007
Heightened Def Con from 1.01678e-007 to 1.01678e-007
Heightened Def Con from 1.01678e-007 to 1.01678e-007
Heightened Def Con from 1.01678e-007 to 1.01678e-007
Heightened Def Con from 1.01678e-007 +to 1.01678e-007
Heightened Def Con from 1.01678e-007 to 1.01678e-007
Heightened Def Con from 1.01678e-007 to 1.01678e-007
Heightened Def Con from 1.01678e-007 +to 1.01678e-007
Heightened Def Con from 1.01678e-007 to 1.01678e-007
Heightened Def Con from 1.01678e-007 to 1.01678e-007
Heightened Def Con from 1.01678e-007 to 1.01678e-007
Heightened Def Con from 1.01678e-007 to 1.01678e-007
Heightened Def Con from 1.01678e-007 to 1.01678e-007
Heightened Def Con from 1.01678e-007 to 1.01678e-007
Heightened Def Con from 1.01678e-007 to 1.01678e-007
Heightened Def Con from 1.01679e-007 to 1.01679e-007
Heightened Def Con from 1.01679e-007 to 1.01679e-007
Heightened Def Con from 1.01679e-007 to 1.01679e-007
Heightened Def Con from 1.01679e-007 to 1.01679e-007
Heightened Def Con from 1.01679e-007 to 1.01679e-007
Heightened Def Con from 1.01679e-007 to 1.01679e-007
Heightened Def Con from 1.01679e-007 to 1.01679e-007
Heightened Def Con from 1.01679e-007 to 1.01679e-007
Heightened Def Con from 1.01679e-007 to 1.01679e-007
Heightened Def Con from 1.01679e-007 to 1.01679e-007
Heightened Def Con from 1.01679e-007 to 1.01679e-007
Heightened Def Con from 1.01679e-007 to 1.01679e-007
Heightened Def Con from 1.01679e-007 to 1.01679e-007
Heightened Def Con from 1.01679e-007 to 1.01679e-007
Heightened Def Con from 1.01679e-007 to 1.01679e-007
Heightened Def Con from 1.01679e-007 to 1.01679e-007
Heightened Def Con from 1.01679e-007 to 1.01679e-007
Heightened Def Con from 1.01679e-007 to 1.01679e-007
Heightened Def Con from 1.01679e-007 to 1.01679e-007
Heightened Def Con from 1.01679e-007 to 1.01679e-007
Heightened Def Con from 1.01679e-007 to 1.01679e-007
Heightened Def Con from 1.01679e-007 to 1.01679e-007
Heightened Def Con from 1.01679e-007 to 1.01679e-007
Heightened Def Con from 1.01679e-007 to 1.01679e-007
Heightened Def Con from 1.01679e-007 to 1.01679e-007
Heightened Def Con from 1.01679e-007 to 1.01679e-007
Heightened Def Con from 1.01679e-007 to 1.01679e-007
Heightened Def Con from 1.01679e-007 to 1.01679e-007
Heightened Def Con from 1.01679e-007 to 1.01679e-007
Heightened Def Con from 1.01679e-007 +to 1.01679e-007
Heightened Def Con from 1.01679e-007 to 1.01679e-007
Heightened Def Con from 1.01679e-007 to 1.01679e-007
Heightened Def Con from 1.01679e-007 to 1.01679e-007
Heightened Def Con from 1.01679e-007 +to 1.01679e-007
Heightened Def Con from 1.01679e-007 to 1.01679e-007
Heightened Def Con from 1.01679e-007 to 1.0168e-007
Heightened Def Con from 1.0168e-007 to 1.0168e-007
Heightened Def Con from 1.0168e-007 to 1.0168e-007
Heightened Def Con from 1.0168e-007 to 1.0168e-007
Heightened Def Con from 1.0168e-007 to 1.0168e-007
Heightened Def Con from 1.01681e-007 to 1.01681e-007
Heightened Def Con from 1.01681e-007 to 1.01681e-007
Heightened Def Con from 1.01681e-007 to 1.01681e-007
Heightened Def Con from 1.01681e-007 to 1.01681e-007
Heightened Def Con from 1.01681e-007 to 1.01681e-007
Heightened Def Con from 1.01681e-007 to 1.01681e-007
Heightened Def Con from 1.01681e-007 to 1.01681e-007
Heightened Def Con from 1.01681e-007 to 1.01681e-007
Heightened Def Con from 1.01681e-007 to 1.01681e-007
Heightened Def Con from 1.01681e-007 to 1.01681e-007
Heightened Def Con from 1.01681e-007 to 1.01681e-007
Heightened Def Con from 1.01681e-007 to 1.01681e-007
Heightened Def Con from 1.01681e-007 to 1.01681e-007
Heightened Def Con from 1.01681e-007 to 1.01681e-007
Heightened Def Con from 1.01681e-007 to 1.01681e-007
Heightened Def Con from 1.01681e-007 to 1.01681e-007
Heightened Def Con from 1.01681e-007 to 1.01681e-007
Heightened Def Con from 1.01681e-007 to 1.01681e-007
Heightened Def Con from 1.01681e-007 to 1.01681e-007
Heightened Def Con from 1.01681e-007 to 1.01681e-007
Heightened Def Con from 1.01681e-007 to 1.01681e-007
Heightened Def Con from 1.01681e-007 to 1.01681e-007
Heightened Def Con from 1.01681e-007 to 1.01681e-007
Heightened Def Con from 1.01682e-007 to 1.01682e-007
Heightened Def Con from 1.01682e-007 to 1.01682e-007
Heightened Def Con from 1.01682e-007 to 1.01682e-007
Heightened Def Con from 1.01682e-007 to 1.01682e-007
Heightened Def Con from 1.01682e-007 to 1.01682e-007
Heightened Def Con from 1.01682e-007 to 1.01682e-007
Heightened Def Con from 1.01682e-007 to 1.01682e-007
Heightened Def Con from 1.01682e-007 to 1.01682e-007
Heightened Def Con from 1.01682e-007 to 1.01682e-007
Heightened Def Con from 1.01682e-007 to 1.01682e-007
Heightened Def Con from 1.01682e-007 +to 1.01682e-007
Heightened Def Con from 1.01682e-007 +to 1.01682e-007
Heightened Def Con from 1.01682e-007 to 1.01683e-007
Heightened Def Con from 1.01683e-007 to 1.01683e-007
Heightened Def Con from 1.01683e-007 to 1.01683e-007
Heightened Def Con from 1.01683e-007 to 1.01683e-007
Heightened Def Con from 1.01683e-007 to 1.01683e-007
Heightened Def Con from 1.01683e-007 to 1.01683e-007
Heightened Def Con from 1.01683e-007 to 1.01683e-007
Heightened Def Con from 1.01683e-007 to 1.01684e-007
Heightened Def Con from 1.01684e-007 to 1.01684e-007
Heightened Def Con from 1.01684e-007 to 1.01684e-007
Heightened Def Con from 1.01684e-007 to 1.01684e-007
Heightened Def Con from 1.01684e-007 to 1.01684e-007
Heightened Def Con from 1.01684e-007 to 1.01684e-007
Heightened Def Con from 1.01684e-007 to 1.01684e-007
Heightened Def Con from 1.01684e-007 to 1.01684e-007
Heightened Def Con from 1.01684e-007 to 1.01684e-007
Heightened Def Con from 1.01684e-007 to 1.01684e-007
Heightened Def Con from 1.01684e-007 to 1.01684e-007
Heightened Def Con from 1.01684e-007 to 1.01684e-007
Heightened Def Con from 1.01684e-007 to 1.01684e-007
Heightened Def Con from 1.01684e-007 to 1.01684e-007
Heightened Def Con from 1.01684e-007 to 1.01684e-007
Heightened Def Con from 1.01684e-007 to 1.01684e-007
Heightened Def Con from 1.01685e-007 to 1.01685e-007
Heightened Def Con from 1.01685e-007 to 1.01685e-007
Heightened Def Con from 1.01685e-007 to 1.01685e-007
Heightened Def Con from 1.01685e-007 to 1.01685e-007
Heightened Def Con from 1.01685e-007 to 1.01685e-007
Heightened Def Con from 1.01685e-007 to 1.01685e-007
Heightened Def Con from 1.01685e-007 to 1.01685e-007
Heightened Def Con from 1.01685e-007 to 1.01685e-007
Heightened Def Con from 1.01685e-007 to 1.01685e-007
Heightened Def Con from 1.01685e-007 to 1.01685e-007
Heightened Def Con from 1.01685e-007 to 1.01686e-007
Heightened Def Con from 1.01686e-007 to 1.01686e-007
Heightened Def Con from 1.01686e-007 to 1.01686e-007
Heightened Def Con from 1.01686e-007 to 1.01686e-007
Heightened Def Con from 1.01686e-007 to 1.01686e-007
Heightened Def Con from 1.01686e-007 to 1.01686e-007
Heightened Def Con from 1.01686e-007 to 1.01686e-007
Heightened Def Con from 1.01686e-007 +to 1.01686e-007
Heightened Def Con from 1.01686e-007 to 1.01686e-007
Heightened Def Con from 1.01686e-007 to 1.01686e-007
Heightened Def Con from 1.01686e-007 to 1.01686e-007
Heightened Def Con from 1.01686e-007 to 1.01686e-007
Heightened Def Con from 1.01686e-007 to 1.01686e-007
Heightened Def Con from 1.01686e-007 to 1.01686e-007
Heightened Def Con from 1.01686e-007 to 1.01686e-007
Heightened Def Con from 1.01686e-007 to 1.01686e-007
Heightened Def Con from 1.01686e-007 to 1.01686e-007
Heightened Def Con from 1.01686e-007 to 1.01686e-007
Heightened Def Con from 1.01686e-007 to 1.01686e-007
Heightened Def Con from 1.01686e-007 to 1.01686e-007
Heightened Def Con from 1.01686e-007 to 1.01687e-007
Heightened Def Con from 1.01687e-007 to 1.01687e-007
Heightened Def Con from 1.01687e-007 to 1.01687e-007
Heightened Def Con from 1.01687e-007 to 1.01687e-007
Heightened Def Con from 1.01687e-007 +to 1.01687e-007
Heightened Def Con from 1.01687e-007 to 1.01687e-007
Heightened Def Con from 1.01687e-007 to 1.01687e-007
Heightened Def Con from 1.01688e-007 to 1.01688e-007
Heightened Def Con from 1.01688e-007 to 1.01688e-007
Heightened Def Con from 1.01688e-007 to 1.01688e-007
Heightened Def Con from 1.01688e-007 to 1.01688e-007
Heightened Def Con from 1.01688e-007 to 1.01688e-007
Heightened Def Con from 1.01688e-007 +to 1.01688e-007
Heightened Def Con from 1.01688e-007 to 1.01688e-007
Heightened Def Con from 1.01688e-007 to 1.01688e-007
Heightened Def Con from 1.01688e-007 to 1.01688e-007
Heightened Def Con from 1.01688e-007 to 1.01813e-007
Heightened Def Con from 1.01813e-007 +to 1.01813e-007
Heightened Def Con from 1.01813e-007 to 1.01813e-007
Heightened Def Con from 1.01813e-007 to 1.01813e-007
Heightened Def Con from 1.01813e-007 to 1.01813e-007
Heightened Def Con from 1.01813e-007 to 1.01813e-007
Heightened Def Con from 1.01813e-007 to 1.01813e-007
Heightened Def Con from 1.01813e-007 to 1.01813e-007
Heightened Def Con from 1.01813e-007 to 1.01813e-007
Heightened Def Con from 1.01814e-007 to 1.01814e-007
Heightened Def Con from 1.01814e-007 to 1.01814e-007
Heightened Def Con from 1.01814e-007 to 1.01814e-007
Heightened Def Con from 1.01814e-007 to 1.01814e-007
Heightened Def Con from 1.01814e-007 to 1.01814e-007
Heightened Def Con from 1.01814e-007 to 1.01814e-007
Heightened Def Con from 1.01814e-007 to 1.01814e-007
Heightened Def Con from 1.01814e-007 to 1.01814e-007
Heightened Def Con from 1.01814e-007 to 1.01814e-007
Heightened Def Con from 1.01814e-007 to 1.01814e-007
Heightened Def Con from 1.01814e-007 to 1.01814e-007
Heightened Def Con from 1.01814e-007 to 1.01815e-007
Heightened Def Con from 1.01815e-007 to 1.01815e-007
Heightened Def Con from 1.01815e-007 to 1.01815e-007
Heightened Def Con from 1.01815e-007 to 1.01815e-007
Heightened Def Con from 1.01815e-007 to 1.01815e-007
Heightened Def Con from 1.01815e-007 to 1.01815e-007
Heightened Def Con from 1.01815e-007 to 1.01815e-007
Heightened Def Con from 1.01815e-007 to 1.01815e-007
Heightened Def Con from 1.01816e-007 to 1.01816e-007
Heightened Def Con from 1.01816e-007 to 1.01816e-007
Heightened Def Con from 1.01816e-007 to 1.01816e-007
Heightened Def Con from 1.01816e-007 to 1.01816e-007
Heightened Def Con from 1.01816e-007 +to 1.01816e-007
Heightened Def Con from 1.01816e-007 to 1.01816e-007
Heightened Def Con from 1.01816e-007 to 1.01816e-007
Heightened Def Con from 1.01816e-007 to 1.01816e-007
Heightened Def Con from 1.01816e-007 to 1.01816e-007
Heightened Def Con from 1.01816e-007 to 1.01816e-007
Heightened Def Con from 1.01816e-007 to 1.01817e-007
Heightened Def Con from 1.01817e-007 to 1.01817e-007
Heightened Def Con from 1.01817e-007 to 1.01817e-007
Heightened Def Con from 1.01817e-007 to 1.01817e-007
Heightened Def Con from 1.01817e-007 to 1.01817e-007
Heightened Def Con from 1.01817e-007 to 1.01817e-007
Heightened Def Con from 1.01817e-007 to 1.01817e-007
Heightened Def Con from 1.01817e-007 to 1.01817e-007
Heightened Def Con from 1.01817e-007 to 1.01817e-007
Heightened Def Con from 1.01817e-007 to 1.01817e-007
Heightened Def Con from 1.01817e-007 to 1.01817e-007
Heightened Def Con from 1.01817e-007 to 1.01817e-007
Heightened Def Con from 1.01817e-007 to 1.01817e-007
Heightened Def Con from 1.01817e-007 to 1.01817e-007
Heightened Def Con from 1.01817e-007 to 1.01818e-007
Heightened Def Con from 1.01818e-007 to 1.01818e-007
Heightened Def Con from 1.01818e-007 to 1.01818e-007
Heightened Def Con from 1.01818e-007 to 1.01818e-007
Heightened Def Con from 1.01818e-007 +to 1.01818e-007
Heightened Def Con from 1.01818e-007 to 1.01818e-007
Heightened Def Con from 1.01818e-007 to 1.01818e-007
Heightened Def Con from 1.01818e-007 to 1.01818e-007
Heightened Def Con from 1.01818e-007 to 1.01818e-007
Heightened Def Con from 1.01818e-007 to 1.01818e-007
Heightened Def Con from 1.01818e-007 to 1.01819e-007
Heightened Def Con from 1.01819e-007 to 1.01819e-007
Heightened Def Con from 1.01819e-007 to 1.01819e-007
Heightened Def Con from 1.01819e-007 to 1.01819e-007
Heightened Def Con from 1.01819e-007 to 1.01819e-007
Heightened Def Con from 1.01819e-007 to 1.01819e-007
Heightened Def Con from 1.01819e-007 to 1.01819e-007
Heightened Def Con from 1.01819e-007 to 1.01819e-007
Heightened Def Con from 1.01819e-007 to 1.01819e-007
Heightened Def Con from 1.01819e-007 to 1.01819e-007
Heightened Def Con from 1.01819e-007 +to 1.01819e-007
Heightened Def Con from 1.01819e-007 to 1.01819e-007
Heightened Def Con from 1.01819e-007 to 1.01819e-007
Heightened Def Con from 1.01819e-007 +to 1.01819e-007
Heightened Def Con from 1.01819e-007 to 1.01819e-007
Heightened Def Con from 1.01819e-007 to 1.01819e-007
Heightened Def Con from 1.01819e-007 to 1.01819e-007
Heightened Def Con from 1.01819e-007 to 1.01819e-007
Heightened Def Con from 1.01819e-007 to 1.01819e-007
Heightened Def Con from 1.01819e-007 to 1.01819e-007
Heightened Def Con from 1.01819e-007 to 1.01819e-007
Heightened Def Con from 1.01819e-007 to 1.01819e-007
Heightened Def Con from 1.01819e-007 to 1.01819e-007
Heightened Def Con from 1.01819e-007 to 1.01819e-007
Heightened Def Con from 1.01819e-007 to 1.01819e-007
Heightened Def Con from 1.01819e-007 to 1.01819e-007
Heightened Def Con from 1.01819e-007 to 1.01819e-007
Heightened Def Con from 1.0182e-007 to 1.0182e-007
Heightened Def Con from 1.0182e-007 +to 1.0182e-007
Heightened Def Con from 1.0182e-007 to 1.0182e-007
Heightened Def Con from 1.0182e-007 to 1.0182e-007
Heightened Def Con from 1.0182e-007 to 1.0182e-007
Heightened Def Con from 1.0182e-007 to 1.0182e-007
Heightened Def Con from 1.0182e-007 to 1.0182e-007
Heightened Def Con from 1.0182e-007 to 1.0182e-007
Heightened Def Con from 1.0182e-007 to 1.0182e-007
Heightened Def Con from 1.0182e-007 to 1.0182e-007
Heightened Def Con from 1.0182e-007 to 1.01821e-007
Heightened Def Con from 1.01821e-007 to 1.01821e-007
Heightened Def Con from 1.01821e-007 to 1.01821e-007
Heightened Def Con from 1.01821e-007 to 1.01821e-007
Heightened Def Con from 1.01821e-007 +to 1.01821e-007
Heightened Def Con from 1.01821e-007 to 1.01837e-007
Heightened Def Con from 1.01837e-007 to 1.01837e-007
Heightened Def Con from 1.01837e-007 to 1.01837e-007
Heightened Def Con from 1.01837e-007 +to 1.01837e-007
Heightened Def Con from 1.01837e-007 to 1.01837e-007
Heightened Def Con from 1.01837e-007 to 1.01837e-007
Heightened Def Con from 1.01837e-007 to 1.01837e-007
Heightened Def Con from 1.01837e-007 to 1.01837e-007
Heightened Def Con from 1.01837e-007 to 1.01837e-007
Heightened Def Con from 1.01837e-007 to 1.01837e-007
Heightened Def Con from 1.01837e-007 to 1.01837e-007
Heightened Def Con from 1.01837e-007 to 1.01837e-007
Heightened Def Con from 1.01837e-007 to 1.01838e-007
Heightened Def Con from 1.01838e-007 to 1.01838e-007
Heightened Def Con from 1.01838e-007 to 1.01838e-007
Heightened Def Con from 1.01838e-007 to 1.01838e-007
Heightened Def Con from 1.01838e-007 +to 1.01838e-007
Heightened Def Con from 1.01838e-007 to 1.01838e-007
Heightened Def Con from 1.01838e-007 to 1.01838e-007
Heightened Def Con from 1.01838e-007 to 1.01838e-007
Heightened Def Con from 1.01838e-007 to 1.01838e-007
Heightened Def Con from 1.01838e-007 to 1.01838e-007
Heightened Def Con from 1.01838e-007 to 1.01838e-007
Heightened Def Con from 1.01838e-007 to 1.01838e-007
Heightened Def Con from 1.01838e-007 to 1.01838e-007
Heightened Def Con from 1.01838e-007 to 1.01838e-007
Heightened Def Con from 1.01838e-007 to 1.01838e-007
Heightened Def Con from 1.01838e-007 to 1.01838e-007
Heightened Def Con from 1.01838e-007 to 1.01838e-007
Heightened Def Con from 1.01838e-007 to 1.01838e-007
Heightened Def Con from 1.01838e-007 to 1.01838e-007
Heightened Def Con from 1.01838e-007 to 1.01838e-007
Heightened Def Con from 1.01838e-007 to 1.01838e-007
Heightened Def Con from 1.01838e-007 +to 1.01838e-007
Heightened Def Con from 1.01838e-007 to 1.01838e-007
Heightened Def Con from 1.01838e-007 to 1.01838e-007
Heightened Def Con from 1.01838e-007 to 1.01838e-007
Heightened Def Con from 1.01838e-007 to 1.01838e-007
Heightened Def Con from 1.01838e-007 to 1.01839e-007
Heightened Def Con from 1.01839e-007 to 1.01839e-007
Heightened Def Con from 1.01839e-007 to 1.01839e-007
Heightened Def Con from 1.01839e-007 to 1.01839e-007
Heightened Def Con from 1.01839e-007 to 1.01839e-007
Heightened Def Con from 1.01839e-007 to 1.01839e-007
Heightened Def Con from 1.01839e-007 to 1.01839e-007
Heightened Def Con from 1.01839e-007 to 1.01839e-007
Heightened Def Con from 1.01839e-007 to 1.01839e-007
Heightened Def Con from 1.01839e-007 +to 1.01839e-007
Heightened Def Con from 1.01839e-007 to 1.01855e-007
Heightened Def Con from 1.01855e-007 to 1.01855e-007
Heightened Def Con from 1.01855e-007 to 1.01855e-007
Heightened Def Con from 1.01855e-007 +to 1.01855e-007
Heightened Def Con from 1.01855e-007 to 1.01855e-007
Heightened Def Con from 1.01855e-007 to 1.01857e-007
Heightened Def Con from 1.01857e-007 to 1.01857e-007
Heightened Def Con from 1.01857e-007 to 1.01857e-007
Heightened Def Con from 1.01857e-007 to 1.01857e-007
Heightened Def Con from 1.01857e-007 to 1.01857e-007
Heightened Def Con from 1.01857e-007 to 1.01857e-007
Heightened Def Con from 1.01857e-007 +to 1.01857e-007
Heightened Def Con from 1.01857e-007 to 1.01857e-007
Heightened Def Con from 1.01857e-007 to 1.01857e-007
Heightened Def Con from 1.01857e-007 +to 1.01857e-007
Heightened Def Con from 1.01857e-007 to 1.01857e-007
Heightened Def Con from 1.01857e-007 +to 1.01857e-007
Heightened Def Con from 1.01857e-007 to 1.01858e-007
Heightened Def Con from 1.01858e-007 to 1.01858e-007
Heightened Def Con from 1.01858e-007 to 1.01858e-007
Heightened Def Con from 1.01858e-007 to 1.01858e-007
Heightened Def Con from 1.01858e-007 to 1.01858e-007
Heightened Def Con from 1.01858e-007 to 1.01858e-007
Heightened Def Con from 1.01858e-007 to 1.01858e-007
Heightened Def Con from 1.01858e-007 +to 1.01858e-007
Heightened Def Con from 1.01858e-007 to 1.01858e-007
Heightened Def Con from 1.01858e-007 to 1.01858e-007
Heightened Def Con from 1.01858e-007 to 1.01858e-007
Heightened Def Con from 1.01858e-007 to 1.01858e-007
Heightened Def Con from 1.01858e-007 to 1.01858e-007
Heightened Def Con from 1.01858e-007 to 1.01858e-007
Heightened Def Con from 1.01858e-007 to 1.01858e-007
Heightened Def Con from 1.01858e-007 +to 1.01858e-007
Heightened Def Con from 1.01858e-007 to 1.01858e-007
Heightened Def Con from 1.01858e-007 to 1.01858e-007
Heightened Def Con from 1.01858e-007 to 1.01858e-007
Heightened Def Con from 1.01858e-007 to 1.01858e-007
Heightened Def Con from 1.01858e-007 to 1.01858e-007
Heightened Def Con from 1.01858e-007 to 1.01858e-007
Heightened Def Con from 1.01858e-007 to 1.01858e-007
Heightened Def Con from 1.01858e-007 +to 1.01859e-007
Heightened Def Con from 1.01859e-007 to 1.01859e-007
Heightened Def Con from 1.01859e-007 to 1.01859e-007
Heightened Def Con from 1.01859e-007 to 1.01859e-007
Heightened Def Con from 1.01859e-007 to 1.01859e-007
Heightened Def Con from 1.01859e-007 to 1.01859e-007
Heightened Def Con from 1.01859e-007 to 1.01859e-007
Heightened Def Con from 1.01859e-007 to 1.01859e-007
Heightened Def Con from 1.01859e-007 to 1.01859e-007
Heightened Def Con from 1.01859e-007 to 1.01859e-007
Heightened Def Con from 1.01859e-007 to 1.01859e-007
Heightened Def Con from 1.01859e-007 +to 1.01859e-007
Heightened Def Con from 1.01859e-007 to 1.01859e-007
Heightened Def Con from 1.01859e-007 to 1.01859e-007
Heightened Def Con from 1.01859e-007 to 1.01859e-007
Heightened Def Con from 1.01859e-007 +to 1.01859e-007
Heightened Def Con from 1.01859e-007 to 1.01859e-007
Heightened Def Con from 1.01859e-007 to 1.01859e-007
Heightened Def Con from 1.01859e-007 to 1.01859e-007
Heightened Def Con from 1.01859e-007 to 1.01859e-007
Heightened Def Con from 1.01859e-007 to 1.01859e-007
Heightened Def Con from 1.01859e-007 to 1.01859e-007
Heightened Def Con from 1.01859e-007 to 1.01859e-007
Heightened Def Con from 1.01859e-007 to 1.01859e-007
Heightened Def Con from 1.01859e-007 to 1.01859e-007
Heightened Def Con from 1.01859e-007 to 1.01859e-007
Heightened Def Con from 1.01859e-007 to 1.01859e-007
Heightened Def Con from 1.01859e-007 to 1.01859e-007
Heightened Def Con from 1.01859e-007 to 1.01859e-007
Heightened Def Con from 1.0186e-007 to 1.0186e-007
Heightened Def Con from 1.0186e-007 to 1.0186e-007
Heightened Def Con from 1.0186e-007 to 1.0186e-007
Heightened Def Con from 1.0186e-007 to 1.0186e-007
Heightened Def Con from 1.0186e-007 to 1.0186e-007
Heightened Def Con from 1.0186e-007 to 1.0186e-007
Heightened Def Con from 1.0186e-007 to 1.0186e-007
Heightened Def Con from 1.0186e-007 to 1.0186e-007
Heightened Def Con from 1.0186e-007 to 1.0186e-007
Heightened Def Con from 1.0186e-007 to 1.0186e-007
Heightened Def Con from 1.0186e-007 to 1.0186e-007
Heightened Def Con from 1.0186e-007 to 1.0186e-007
Heightened Def Con from 1.0186e-007 to 1.0186e-007
Heightened Def Con from 1.0186e-007 to 1.0186e-007
Heightened Def Con from 1.0186e-007 to 1.0186e-007
Heightened Def Con from 1.0186e-007 to 1.0186e-007
Heightened Def Con from 1.0186e-007 to 1.0186e-007
Heightened Def Con from 1.0186e-007 to 1.0186e-007
Heightened Def Con from 1.0186e-007 to 1.0186e-007
Heightened Def Con from 1.0186e-007 to 1.0186e-007
Heightened Def Con from 1.0186e-007 ++to 1.0186e-007
Heightened Def Con from 1.01861e-007 to 1.01861e-007
Heightened Def Con from 1.01861e-007 to 1.01861e-007
Heightened Def Con from 1.01861e-007 to 1.01861e-007
Heightened Def Con from 1.01861e-007 to 1.01861e-007
Heightened Def Con from 1.01861e-007 to 1.01861e-007
Heightened Def Con from 1.01861e-007 to 1.01861e-007
Heightened Def Con from 1.01861e-007 to 1.01861e-007
Heightened Def Con from 1.01861e-007 to 1.01861e-007
Heightened Def Con from 1.01861e-007 to 1.01861e-007
Heightened Def Con from 1.01861e-007 to 1.01861e-007
Heightened Def Con from 1.01861e-007 to 1.01861e-007
Heightened Def Con from 1.01861e-007 ++to 1.01861e-007
Heightened Def Con from 1.01861e-007 to 1.01862e-007
Heightened Def Con from 1.01862e-007 to 1.01862e-007
Heightened Def Con from 1.01862e-007 to 1.01862e-007
Heightened Def Con from 1.01862e-007 to 1.01862e-007
Heightened Def Con from 1.01862e-007 to 1.01862e-007
Heightened Def Con from 1.01862e-007 +to 1.01864e-007
Heightened Def Con from 1.01864e-007 to 1.01864e-007
Heightened Def Con from 1.01864e-007 to 1.01864e-007
Heightened Def Con from 1.01865e-007 to 1.01865e-007
Heightened Def Con from 1.01865e-007 to 1.01865e-007
Heightened Def Con from 1.01865e-007 to 1.01865e-007
Heightened Def Con from 1.01865e-007 to 1.01865e-007
Heightened Def Con from 1.01865e-007 to 1.01865e-007
Heightened Def Con from 1.01865e-007 to 1.01865e-007
Heightened Def Con from 1.01865e-007 +to 1.01865e-007
Heightened Def Con from 1.01865e-007 to 1.01865e-007
Heightened Def Con from 1.01866e-007 to 1.01866e-007
Heightened Def Con from 1.01866e-007 to 1.01866e-007
Heightened Def Con from 1.01866e-007 to 1.01866e-007
Heightened Def Con from 1.01866e-007 to 1.01866e-007
Heightened Def Con from 1.01866e-007 to 1.01866e-007
Heightened Def Con from 1.01866e-007 to 1.01866e-007
Heightened Def Con from 1.01866e-007 to 1.01866e-007
Heightened Def Con from 1.01866e-007 to 1.01882e-007
Heightened Def Con from 1.01882e-007 to 1.01882e-007
Heightened Def Con from 1.01882e-007 +to 1.01882e-007
Heightened Def Con from 1.01882e-007 to 1.01882e-007
Heightened Def Con from 1.01882e-007 to 1.01882e-007
Heightened Def Con from 1.01882e-007 to 1.01882e-007
Heightened Def Con from 1.01882e-007 to 1.01882e-007
Heightened Def Con from 1.01882e-007 to 1.01882e-007
Heightened Def Con from 1.01882e-007 to 1.01882e-007
Heightened Def Con from 1.01882e-007 to 1.01882e-007
Heightened Def Con from 1.01882e-007 to 1.01882e-007
Heightened Def Con from 1.01882e-007 to 1.01882e-007
Heightened Def Con from 1.01882e-007 +to 1.01883e-007
Heightened Def Con from 1.01883e-007 to 1.01883e-007
Heightened Def Con from 1.01883e-007 to 1.01883e-007
Heightened Def Con from 1.01883e-007 to 1.01883e-007
Heightened Def Con from 1.01883e-007 to 1.01883e-007
Heightened Def Con from 1.01883e-007 to 1.01883e-007
Heightened Def Con from 1.01883e-007 +to 1.01883e-007
Heightened Def Con from 1.01883e-007 to 1.01883e-007
Heightened Def Con from 1.01883e-007 to 1.01883e-007
Heightened Def Con from 1.01883e-007 to 1.01883e-007
Heightened Def Con from 1.01883e-007 +to 1.01883e-007
Heightened Def Con from 1.01883e-007 to 1.01883e-007
Heightened Def Con from 1.01883e-007 to 1.01883e-007
Heightened Def Con from 1.01883e-007 to 1.01883e-007
Heightened Def Con from 1.01883e-007 to 1.01884e-007
Heightened Def Con from 1.01884e-007 to 1.01884e-007
Heightened Def Con from 1.01884e-007 to 1.01884e-007
Heightened Def Con from 1.01884e-007 to 1.01884e-007
Heightened Def Con from 1.01884e-007 ++to 1.01884e-007
Heightened Def Con from 1.01884e-007 to 1.01884e-007
Heightened Def Con from 1.01884e-007 to 1.01884e-007
Heightened Def Con from 1.01884e-007 to 1.01884e-007
Heightened Def Con from 1.01884e-007 to 1.01884e-007
Heightened Def Con from 1.01884e-007 to 1.01884e-007
Heightened Def Con from 1.01884e-007 to 1.01884e-007
Heightened Def Con from 1.01884e-007 to 1.01884e-007
Heightened Def Con from 1.01884e-007 to 1.01884e-007
Heightened Def Con from 1.01884e-007 to 1.01884e-007
Heightened Def Con from 1.01884e-007 to 1.01884e-007
Heightened Def Con from 1.01884e-007 to 1.01885e-007
Heightened Def Con from 1.01885e-007 to 1.01885e-007
Heightened Def Con from 1.01885e-007 to 1.01885e-007
Heightened Def Con from 1.01885e-007 to 1.01885e-007
Heightened Def Con from 1.01885e-007 +to 1.01885e-007
Heightened Def Con from 1.01885e-007 to 1.01885e-007
Heightened Def Con from 1.01885e-007 to 1.01885e-007
Heightened Def Con from 1.01885e-007 to 1.01885e-007
Heightened Def Con from 1.01885e-007 to 1.01885e-007
Heightened Def Con from 1.01885e-007 to 1.01885e-007
Heightened Def Con from 1.01885e-007 to 1.01885e-007
Heightened Def Con from 1.01885e-007 to 1.01885e-007
Heightened Def Con from 1.01885e-007 to 1.01885e-007
Heightened Def Con from 1.01885e-007 to 1.01885e-007
Heightened Def Con from 1.01886e-007 to 1.01886e-007
Heightened Def Con from 1.01886e-007 to 1.01886e-007
Heightened Def Con from 1.01886e-007 to 1.01886e-007
Heightened Def Con from 1.01886e-007 to 1.01886e-007
Heightened Def Con from 1.01886e-007 to 1.01886e-007
Heightened Def Con from 1.01886e-007 to 1.01901e-007
Heightened Def Con from 1.01901e-007 to 1.01901e-007
Heightened Def Con from 1.01901e-007 to 1.01901e-007
Heightened Def Con from 1.01902e-007 to 1.01902e-007
Heightened Def Con from 1.01902e-007 +to 1.01902e-007
Heightened Def Con from 1.01902e-007 to 1.01902e-007
Heightened Def Con from 1.01902e-007 to 1.01902e-007
Heightened Def Con from 1.01902e-007 to 1.01902e-007
Heightened Def Con from 1.01902e-007 to 1.01902e-007
Heightened Def Con from 1.01902e-007 +to 1.01902e-007
Heightened Def Con from 1.01902e-007 +to 1.01902e-007
Heightened Def Con from 1.01902e-007 to 1.01902e-007
Heightened Def Con from 1.01902e-007 to 1.01902e-007
Heightened Def Con from 1.01902e-007 +to 1.01902e-007
Heightened Def Con from 1.01902e-007 to 1.01902e-007
Heightened Def Con from 1.01902e-007 to 1.01902e-007
Heightened Def Con from 1.01902e-007 +to 1.01902e-007
Heightened Def Con from 1.01903e-007 to 1.01903e-007
Heightened Def Con from 1.01903e-007 to 1.01903e-007
Heightened Def Con from 1.01903e-007 to 1.01903e-007
Heightened Def Con from 1.01903e-007 to 1.01903e-007
Heightened Def Con from 1.01903e-007 +to 1.01903e-007
Heightened Def Con from 1.01903e-007 to 1.01903e-007
Heightened Def Con from 1.01903e-007 to 1.01903e-007
Heightened Def Con from 1.01903e-007 to 1.01903e-007
Heightened Def Con from 1.01904e-007 to 1.01904e-007
Heightened Def Con from 1.01904e-007 to 1.01904e-007
Heightened Def Con from 1.01904e-007 to 1.01904e-007
Heightened Def Con from 1.01904e-007 to 1.01904e-007
Heightened Def Con from 1.01904e-007 to 1.01904e-007
Heightened Def Con from 1.01904e-007 to 1.01904e-007
Heightened Def Con from 1.01904e-007 to 1.01904e-007
Heightened Def Con from 1.01904e-007 to 1.01904e-007
Heightened Def Con from 1.01904e-007 to 1.01904e-007
Heightened Def Con from 1.01905e-007 to 1.01905e-007
Heightened Def Con from 1.01905e-007 to 1.01905e-007
Heightened Def Con from 1.01905e-007 to 1.01905e-007
Heightened Def Con from 1.01905e-007 to 1.01905e-007
Heightened Def Con from 1.01905e-007 to 1.01905e-007
Heightened Def Con from 1.01905e-007 to 1.01905e-007
Heightened Def Con from 1.01905e-007 to 1.01905e-007
Heightened Def Con from 1.01905e-007 to 1.01905e-007
Heightened Def Con from 1.01905e-007 to 1.01905e-007
Heightened Def Con from 1.01905e-007 to 1.01905e-007
Heightened Def Con from 1.01905e-007 to 1.01905e-007
Heightened Def Con from 1.01905e-007 to 1.01905e-007
Heightened Def Con from 1.01905e-007 to 1.01906e-007
Heightened Def Con from 1.01906e-007 +to 1.01906e-007
Heightened Def Con from 1.01906e-007 to 1.01906e-007
Heightened Def Con from 1.01906e-007 ++to 1.01921e-007
Heightened Def Con from 1.01922e-007 to 1.01923e-007
Heightened Def Con from 1.01923e-007 to 1.01923e-007
Heightened Def Con from 1.01923e-007 to 1.01923e-007
Heightened Def Con from 1.01923e-007 to 1.01923e-007
Heightened Def Con from 1.01923e-007 to 1.01924e-007
Heightened Def Con from 1.01924e-007 to 1.01924e-007
Heightened Def Con from 1.01925e-007 to 1.01925e-007
Heightened Def Con from 1.01925e-007 to 1.01925e-007
Heightened Def Con from 1.01925e-007 to 1.01925e-007
Heightened Def Con from 1.01925e-007 to 1.01925e-007
Heightened Def Con from 1.01925e-007 to 1.01925e-007
Heightened Def Con from 1.01925e-007 to 1.01926e-007
Heightened Def Con from 1.01926e-007 to 1.01926e-007
Heightened Def Con from 1.01926e-007 to 1.01926e-007
Heightened Def Con from 1.01926e-007 to 1.01926e-007
Heightened Def Con from 1.01926e-007 to 1.01926e-007
Heightened Def Con from 1.01926e-007 to 1.01926e-007
Heightened Def Con from 1.01926e-007 to 1.01926e-007
Heightened Def Con from 1.01926e-007 to 1.01926e-007
Heightened Def Con from 1.01926e-007 to 1.01926e-007
Heightened Def Con from 1.01926e-007 to 1.01926e-007
Heightened Def Con from 1.01926e-007 to 1.01926e-007
Heightened Def Con from 1.01926e-007 to 1.01927e-007
Heightened Def Con from 1.01927e-007 to 1.01927e-007
Heightened Def Con from 1.01927e-007 to 1.01927e-007
Heightened Def Con from 1.01927e-007 to 1.01927e-007
Heightened Def Con from 1.01927e-007 to 1.01927e-007
Heightened Def Con from 1.01927e-007 to 1.01927e-007
Heightened Def Con from 1.01927e-007 to 1.01927e-007
Heightened Def Con from 1.01927e-007 to 1.01927e-007
Heightened Def Con from 1.01927e-007 to 1.01927e-007
Heightened Def Con from 1.01927e-007 to 1.01927e-007
Heightened Def Con from 1.01927e-007 to 1.01927e-007
Heightened Def Con from 1.01927e-007 to 1.01927e-007
Heightened Def Con from 1.01928e-007 to 1.01928e-007
Heightened Def Con from 1.01928e-007 to 1.01928e-007
Heightened Def Con from 1.01928e-007 +to 1.01928e-007
Heightened Def Con from 1.01928e-007 to 1.01928e-007
Heightened Def Con from 1.01928e-007 to 1.01928e-007
Heightened Def Con from 1.01928e-007 to 1.01928e-007
Heightened Def Con from 1.01928e-007 to 1.01928e-007
Heightened Def Con from 1.01928e-007 to 1.01928e-007
Heightened Def Con from 1.01928e-007 to 1.01928e-007
Heightened Def Con from 1.01928e-007 to 1.02053e-007
Heightened Def Con from 1.02053e-007 +to 1.02053e-007
Heightened Def Con from 1.02053e-007 +to 1.02053e-007
Heightened Def Con from 1.02053e-007 to 1.02053e-007
Heightened Def Con from 1.02053e-007 to 1.02053e-007
Heightened Def Con from 1.02053e-007 to 1.02053e-007
Heightened Def Con from 1.02053e-007 to 1.02053e-007
Heightened Def Con from 1.02053e-007 to 1.02053e-007
Heightened Def Con from 1.02054e-007 to 1.02054e-007
Heightened Def Con from 1.02054e-007 +to 1.02054e-007
Heightened Def Con from 1.02054e-007 to 1.02054e-007
Heightened Def Con from 1.02054e-007 to 1.02054e-007
Heightened Def Con from 1.02054e-007 +to 1.02054e-007
Heightened Def Con from 1.02054e-007 to 1.02054e-007
Heightened Def Con from 1.02054e-007 to 1.02054e-007
Heightened Def Con from 1.02054e-007 to 1.02054e-007
Heightened Def Con from 1.02054e-007 to 1.02054e-007
Heightened Def Con from 1.02054e-007 to 1.02054e-007
Heightened Def Con from 1.02054e-007 to 1.02054e-007
Heightened Def Con from 1.02054e-007 to 1.02054e-007
Heightened Def Con from 1.02054e-007 to 1.02054e-007
Heightened Def Con from 1.02054e-007 to 1.02054e-007
Heightened Def Con from 1.02054e-007 to 1.02054e-007
Heightened Def Con from 1.02054e-007 to 1.02054e-007
Heightened Def Con from 1.02054e-007 to 1.02056e-007
Heightened Def Con from 1.02056e-007 to 1.02057e-007
Heightened Def Con from 1.02057e-007 to 1.02057e-007
Heightened Def Con from 1.02057e-007 to 1.02057e-007
Heightened Def Con from 1.02057e-007 to 1.02057e-007
Heightened Def Con from 1.02057e-007 to 1.02057e-007
Heightened Def Con from 1.02057e-007 to 1.02057e-007
Heightened Def Con from 1.02057e-007 to 1.02057e-007
Heightened Def Con from 1.02057e-007 to 1.02057e-007
Heightened Def Con from 1.02057e-007 to 1.02057e-007
Heightened Def Con from 1.02057e-007 to 1.02057e-007
Heightened Def Con from 1.02057e-007 to 1.02057e-007
Heightened Def Con from 1.02057e-007 to 1.02057e-007
Heightened Def Con from 1.02057e-007 to 1.02057e-007
Heightened Def Con from 1.02057e-007 ++to 1.02058e-007
Heightened Def Con from 1.02058e-007 to 1.02058e-007
Heightened Def Con from 1.02058e-007 to 1.02058e-007
Heightened Def Con from 1.02058e-007 to 1.02058e-007
Heightened Def Con from 1.02058e-007 to 1.02059e-007
Heightened Def Con from 1.02059e-007 +to 1.02059e-007
Heightened Def Con from 1.02059e-007 to 1.02059e-007
Heightened Def Con from 1.02059e-007 to 1.02059e-007
Heightened Def Con from 1.02059e-007 to 1.02059e-007
Heightened Def Con from 1.0206e-007 to 1.0206e-007
Heightened Def Con from 1.0206e-007 to 1.0206e-007
Heightened Def Con from 1.0206e-007 to 1.0206e-007
Heightened Def Con from 1.0206e-007 to 1.0206e-007
Heightened Def Con from 1.0206e-007 to 1.0206e-007
Heightened Def Con from 1.0206e-007 to 1.0206e-007
Heightened Def Con from 1.0206e-007 to 1.0206e-007
Heightened Def Con from 1.0206e-007 to 1.0206e-007
Heightened Def Con from 1.0206e-007 to 1.0206e-007
Heightened Def Con from 1.0206e-007 to 1.0206e-007
Heightened Def Con from 1.0206e-007 to 1.02061e-007
Heightened Def Con from 1.02061e-007 to 1.02061e-007
Heightened Def Con from 1.02061e-007 to 1.02061e-007
Heightened Def Con from 1.02061e-007 to 1.02061e-007
Heightened Def Con from 1.02061e-007 to 1.02061e-007
Heightened Def Con from 1.02061e-007 to 1.02061e-007
Heightened Def Con from 1.02061e-007 +to 1.02061e-007
Heightened Def Con from 1.02061e-007 to 1.02061e-007
Heightened Def Con from 1.02061e-007 to 1.02061e-007
Heightened Def Con from 1.02061e-007 to 1.02061e-007
Heightened Def Con from 1.02061e-007 to 1.02061e-007
Heightened Def Con from 1.02061e-007 to 1.02061e-007
Heightened Def Con from 1.02061e-007 to 1.02061e-007
Heightened Def Con from 1.02062e-007 to 1.02062e-007
Heightened Def Con from 1.02062e-007 to 1.02062e-007
Heightened Def Con from 1.02062e-007 to 1.02062e-007
Heightened Def Con from 1.02062e-007 to 1.02062e-007
Heightened Def Con from 1.02062e-007 +to 1.02062e-007
Heightened Def Con from 1.02062e-007 to 1.02062e-007
Heightened Def Con from 1.02062e-007 to 1.02062e-007
Heightened Def Con from 1.02062e-007 to 1.02062e-007
Heightened Def Con from 1.02062e-007 to 1.02062e-007
Heightened Def Con from 1.02062e-007 to 1.02062e-007
Heightened Def Con from 1.02062e-007 to 1.02062e-007
Heightened Def Con from 1.02062e-007 to 1.02062e-007
Heightened Def Con from 1.02062e-007 to 1.02062e-007
Heightened Def Con from 1.02062e-007 to 1.02062e-007
Heightened Def Con from 1.02062e-007 to 1.02062e-007
Heightened Def Con from 1.02062e-007 to 1.02062e-007
Heightened Def Con from 1.02062e-007 to 1.02062e-007
Heightened Def Con from 1.02062e-007 to 1.02062e-007
Heightened Def Con from 1.02062e-007 +to 1.02062e-007
Heightened Def Con from 1.02063e-007 to 1.02063e-007
Heightened Def Con from 1.02063e-007 to 1.02063e-007
Heightened Def Con from 1.02063e-007 to 1.02063e-007
Heightened Def Con from 1.02063e-007 to 1.02063e-007
Heightened Def Con from 1.02063e-007 to 1.02063e-007
Heightened Def Con from 1.02063e-007 +to 1.02063e-007
Heightened Def Con from 1.02063e-007 +to 1.02063e-007
Heightened Def Con from 1.02063e-007 to 1.02063e-007
Heightened Def Con from 1.02063e-007 to 1.02063e-007
Heightened Def Con from 1.02063e-007 to 1.02063e-007
Heightened Def Con from 1.02063e-007 to 1.02063e-007
Heightened Def Con from 1.02063e-007 to 1.02063e-007
Heightened Def Con from 1.02063e-007 to 1.02063e-007
Heightened Def Con from 1.02063e-007 to 1.02063e-007
Heightened Def Con from 1.02063e-007 to 1.02063e-007
Heightened Def Con from 1.02063e-007 to 1.02063e-007
Heightened Def Con from 1.02063e-007 to 1.02063e-007
Heightened Def Con from 1.02063e-007 to 1.02063e-007
Heightened Def Con from 1.02064e-007 to 1.02064e-007
Heightened Def Con from 1.02064e-007 ++to 1.02064e-007
Heightened Def Con from 1.02064e-007 to 1.02064e-007
Heightened Def Con from 1.02064e-007 to 1.02064e-007
Heightened Def Con from 1.02064e-007 to 1.02064e-007
Heightened Def Con from 1.02064e-007 to 1.02064e-007
Heightened Def Con from 1.02064e-007 to 1.02064e-007
Heightened Def Con from 1.02064e-007 to 1.02064e-007
Heightened Def Con from 1.02064e-007 to 1.02064e-007
Heightened Def Con from 1.02064e-007 to 1.02064e-007
Heightened Def Con from 1.02064e-007 to 1.02064e-007
Heightened Def Con from 1.02064e-007 to 1.02064e-007
Heightened Def Con from 1.02064e-007 to 1.02064e-007
Heightened Def Con from 1.02064e-007 to 1.02065e-007
Heightened Def Con from 1.02065e-007 to 1.02065e-007
Heightened Def Con from 1.02065e-007 to 1.02065e-007
Heightened Def Con from 1.02065e-007 to 1.02065e-007
Heightened Def Con from 1.02065e-007 to 1.02065e-007
Heightened Def Con from 1.02065e-007 to 1.02065e-007
Heightened Def Con from 1.02065e-007 to 1.02065e-007
Heightened Def Con from 1.02065e-007 to 1.02065e-007
Heightened Def Con from 1.02065e-007 to 1.02065e-007
Heightened Def Con from 1.02065e-007 to 1.02065e-007
Heightened Def Con from 1.02065e-007 to 1.02065e-007
Heightened Def Con from 1.02065e-007 to 1.02065e-007
Heightened Def Con from 1.02065e-007 to 1.02065e-007
Heightened Def Con from 1.02065e-007 to 1.02067e-007
Heightened Def Con from 1.02067e-007 to 1.02067e-007
Heightened Def Con from 1.02067e-007 to 1.02067e-007
Heightened Def Con from 1.02067e-007 to 1.02067e-007
Heightened Def Con from 1.02067e-007 to 1.02067e-007
Heightened Def Con from 1.02067e-007 to 1.02068e-007
Heightened Def Con from 1.02068e-007 to 1.02068e-007
Heightened Def Con from 1.02068e-007 to 1.02068e-007
Heightened Def Con from 1.02068e-007 to 1.02068e-007
Heightened Def Con from 1.02068e-007 to 1.02068e-007
Heightened Def Con from 1.02068e-007 to 1.02068e-007
Heightened Def Con from 1.02068e-007 to 1.02068e-007
Heightened Def Con from 1.02068e-007 to 1.02068e-007
Heightened Def Con from 1.02068e-007 +to 1.02068e-007
Heightened Def Con from 1.02068e-007 to 1.02068e-007
Heightened Def Con from 1.02068e-007 to 1.02068e-007
Heightened Def Con from 1.02068e-007 to 1.02068e-007
Heightened Def Con from 1.02068e-007 to 1.02068e-007
Heightened Def Con from 1.02068e-007 to 1.02068e-007
Heightened Def Con from 1.02068e-007 to 1.02068e-007
Heightened Def Con from 1.02068e-007 to 1.02068e-007
Heightened Def Con from 1.02068e-007 to 1.02068e-007
Heightened Def Con from 1.02068e-007 to 1.02068e-007
Heightened Def Con from 1.02069e-007 to 1.02069e-007
Heightened Def Con from 1.02069e-007 to 1.02069e-007
Heightened Def Con from 1.02069e-007 to 1.02069e-007
Heightened Def Con from 1.02069e-007 to 1.02069e-007
Heightened Def Con from 1.02069e-007 to 1.02069e-007
Heightened Def Con from 1.02069e-007 to 1.02069e-007
Heightened Def Con from 1.02069e-007 to 1.02069e-007
Heightened Def Con from 1.02069e-007 to 1.02069e-007
Heightened Def Con from 1.02069e-007 to 1.02069e-007
Heightened Def Con from 1.02069e-007 to 1.02069e-007
Heightened Def Con from 1.02069e-007 to 1.02069e-007
Heightened Def Con from 1.02069e-007 to 1.02069e-007
Heightened Def Con from 1.02069e-007 to 1.02069e-007
Heightened Def Con from 1.02069e-007 to 1.02069e-007
Heightened Def Con from 1.02069e-007 to 1.02069e-007
Heightened Def Con from 1.02069e-007 +to 1.02069e-007
Heightened Def Con from 1.02069e-007 to 1.02069e-007
Heightened Def Con from 1.02069e-007 +to 1.02069e-007
Heightened Def Con from 1.02069e-007 to 1.02069e-007
Heightened Def Con from 1.02069e-007 to 1.02069e-007
Heightened Def Con from 1.0207e-007 to 1.0207e-007
Heightened Def Con from 1.0207e-007 to 1.0207e-007
Heightened Def Con from 1.0207e-007 to 1.0207e-007
Heightened Def Con from 1.0207e-007 to 1.0207e-007
Heightened Def Con from 1.0207e-007 to 1.0207e-007
Heightened Def Con from 1.0207e-007 to 1.0207e-007
Heightened Def Con from 1.0207e-007 to 1.0207e-007
Heightened Def Con from 1.0207e-007 to 1.0207e-007
Heightened Def Con from 1.0207e-007 to 1.0207e-007
Heightened Def Con from 1.0207e-007 to 1.0207e-007
Heightened Def Con from 1.0207e-007 to 1.0207e-007
Heightened Def Con from 1.0207e-007 to 1.0207e-007
Heightened Def Con from 1.0207e-007 to 1.0207e-007
Heightened Def Con from 1.0207e-007 to 1.0207e-007
Heightened Def Con from 1.0207e-007 to 1.0207e-007
Heightened Def Con from 1.02071e-007 to 1.02071e-007
Heightened Def Con from 1.02071e-007 to 1.02071e-007
Heightened Def Con from 1.02071e-007 to 1.02071e-007
Heightened Def Con from 1.02071e-007 to 1.02071e-007
Heightened Def Con from 1.02071e-007 to 1.02071e-007
Heightened Def Con from 1.02071e-007 to 1.02071e-007
Heightened Def Con from 1.02071e-007 to 1.02071e-007
Heightened Def Con from 1.02071e-007 to 1.02071e-007
Heightened Def Con from 1.02071e-007 to 1.02071e-007
Heightened Def Con from 1.02071e-007 to 1.02071e-007
Heightened Def Con from 1.02071e-007 +to 1.02071e-007
Heightened Def Con from 1.02071e-007 to 1.02071e-007
Heightened Def Con from 1.02071e-007 +to 1.02071e-007
Heightened Def Con from 1.02071e-007 to 1.02071e-007
Heightened Def Con from 1.02071e-007 to 1.02073e-007
Heightened Def Con from 1.02073e-007 to 1.02073e-007
Heightened Def Con from 1.02073e-007 to 1.02073e-007
Heightened Def Con from 1.02073e-007 to 1.02073e-007
Heightened Def Con from 1.02073e-007 to 1.02073e-007
Heightened Def Con from 1.02073e-007 to 1.02073e-007
Heightened Def Con from 1.02073e-007 to 1.02073e-007
Heightened Def Con from 1.02073e-007 to 1.02073e-007
Heightened Def Con from 1.02073e-007 to 1.02073e-007
Heightened Def Con from 1.02073e-007 to 1.02073e-007
Heightened Def Con from 1.02073e-007 to 1.02073e-007
Heightened Def Con from 1.02073e-007 to 1.02073e-007
Heightened Def Con from 1.02073e-007 to 1.02073e-007
Heightened Def Con from 1.02073e-007 to 1.02073e-007
Heightened Def Con from 1.02073e-007 to 1.02073e-007
Heightened Def Con from 1.02074e-007 to 1.02074e-007
Heightened Def Con from 1.02074e-007 to 1.02074e-007
Heightened Def Con from 1.02074e-007 to 1.02074e-007
Heightened Def Con from 1.02074e-007 to 1.02074e-007
Heightened Def Con from 1.02074e-007 to 1.02074e-007
Heightened Def Con from 1.02074e-007 to 1.02074e-007
Heightened Def Con from 1.02074e-007 to 1.02074e-007
Heightened Def Con from 1.02074e-007 to 1.02074e-007
Heightened Def Con from 1.02074e-007 to 1.02074e-007
Heightened Def Con from 1.02074e-007 to 1.02074e-007
Heightened Def Con from 1.02075e-007 +to 1.02075e-007
Heightened Def Con from 1.02075e-007 +to 1.02075e-007
Heightened Def Con from 1.02075e-007 to 1.02075e-007
Heightened Def Con from 1.02075e-007 to 1.02075e-007
Heightened Def Con from 1.02075e-007 to 1.02075e-007
Heightened Def Con from 1.02075e-007 to 1.02075e-007
Heightened Def Con from 1.02075e-007 to 1.02075e-007
Heightened Def Con from 1.02075e-007 to 1.02075e-007
Heightened Def Con from 1.02075e-007 to 1.02075e-007
Heightened Def Con from 1.02075e-007 to 1.02075e-007
Heightened Def Con from 1.02075e-007 to 1.02075e-007
Heightened Def Con from 1.02075e-007 to 1.02075e-007
Heightened Def Con from 1.02075e-007 to 1.02075e-007
Heightened Def Con from 1.02075e-007 to 1.02075e-007
Heightened Def Con from 1.02075e-007 to 1.02075e-007
Heightened Def Con from 1.02075e-007 to 1.02076e-007
Heightened Def Con from 1.02076e-007 to 1.02076e-007
Heightened Def Con from 1.02076e-007 to 1.02076e-007
Heightened Def Con from 1.02076e-007 to 1.02076e-007
Heightened Def Con from 1.02076e-007 to 1.02076e-007
Heightened Def Con from 1.02076e-007 to 1.02076e-007
Heightened Def Con from 1.02076e-007 to 1.02076e-007
Heightened Def Con from 1.02076e-007 to 1.02076e-007
Heightened Def Con from 1.02076e-007 to 1.02076e-007
Heightened Def Con from 1.02076e-007 to 1.02076e-007
Heightened Def Con from 1.02076e-007 to 1.02077e-007
Heightened Def Con from 1.02077e-007 to 1.02077e-007
Heightened Def Con from 1.02077e-007 to 1.02077e-007
Heightened Def Con from 1.02077e-007 to 1.02077e-007
Heightened Def Con from 1.02077e-007 to 1.02077e-007
Heightened Def Con from 1.02077e-007 to 1.02077e-007
Heightened Def Con from 1.02077e-007 to 1.02077e-007
Heightened Def Con from 1.02077e-007 to 1.02077e-007
Heightened Def Con from 1.02077e-007 to 1.02077e-007
Heightened Def Con from 1.02077e-007 to 1.02077e-007
Heightened Def Con from 1.02077e-007 to 1.02077e-007
Heightened Def Con from 1.02077e-007 to 1.02077e-007
Heightened Def Con from 1.02077e-007 to 1.02077e-007
Heightened Def Con from 1.02077e-007 to 1.02077e-007
Heightened Def Con from 1.02077e-007 to 1.02077e-007
Heightened Def Con from 1.02077e-007 to 1.02077e-007
Heightened Def Con from 1.02077e-007 to 1.02077e-007
Heightened Def Con from 1.02077e-007 to 1.02077e-007
Heightened Def Con from 1.02077e-007 to 1.02077e-007
Heightened Def Con from 1.02077e-007 to 1.02077e-007
Heightened Def Con from 1.02077e-007 to 1.02077e-007
Heightened Def Con from 1.02077e-007 +to 1.02077e-007
Heightened Def Con from 1.02077e-007 to 1.02077e-007
Heightened Def Con from 1.02077e-007 to 1.02077e-007
Heightened Def Con from 1.02077e-007 +to 1.02077e-007
Heightened Def Con from 1.02078e-007 to 1.02078e-007
Heightened Def Con from 1.02078e-007 to 1.02078e-007
Heightened Def Con from 1.02078e-007 to 1.02078e-007
Heightened Def Con from 1.02078e-007 to 1.02078e-007
Heightened Def Con from 1.02078e-007 to 1.02078e-007
Heightened Def Con from 1.02078e-007 to 1.02078e-007
Heightened Def Con from 1.02078e-007 to 1.02078e-007
Heightened Def Con from 1.02078e-007 to 1.02078e-007
Heightened Def Con from 1.02078e-007 +to 1.02078e-007
Heightened Def Con from 1.02078e-007 to 1.02078e-007
Heightened Def Con from 1.02078e-007 to 1.02078e-007
Heightened Def Con from 1.02078e-007 to 1.02078e-007
Heightened Def Con from 1.02078e-007 to 1.02078e-007
Heightened Def Con from 1.02078e-007 to 1.02078e-007
Heightened Def Con from 1.02079e-007 to 1.02079e-007
Heightened Def Con from 1.02079e-007 to 1.02079e-007
Heightened Def Con from 1.02079e-007 to 1.02079e-007
Heightened Def Con from 1.02079e-007 to 1.02079e-007
Heightened Def Con from 1.02079e-007 to 1.02079e-007
Heightened Def Con from 1.02079e-007 to 1.02079e-007
Heightened Def Con from 1.02079e-007 to 1.02079e-007
Heightened Def Con from 1.02079e-007 to 1.02079e-007
Heightened Def Con from 1.02079e-007 to 1.02079e-007
Heightened Def Con from 1.02079e-007 to 1.02079e-007
Heightened Def Con from 1.02079e-007 to 1.02079e-007
Heightened Def Con from 1.02079e-007 to 1.02079e-007
Heightened Def Con from 1.02079e-007 to 1.02079e-007
Heightened Def Con from 1.02079e-007 to 1.02079e-007
Heightened Def Con from 1.02079e-007 to 1.02079e-007
Heightened Def Con from 1.02079e-007 to 1.02079e-007
Heightened Def Con from 1.02079e-007 to 1.02079e-007
Heightened Def Con from 1.02079e-007 to 1.02079e-007
Heightened Def Con from 1.02079e-007 to 1.02081e-007
Heightened Def Con from 1.02081e-007 to 1.02081e-007
Heightened Def Con from 1.02081e-007 to 1.02082e-007
Heightened Def Con from 1.02082e-007 to 1.02082e-007
Heightened Def Con from 1.02082e-007 to 1.02082e-007
Heightened Def Con from 1.02082e-007 to 1.02082e-007
Heightened Def Con from 1.02082e-007 to 1.02082e-007
Heightened Def Con from 1.02082e-007 to 1.02207e-007
Heightened Def Con from 1.02207e-007 to 1.02207e-007
Heightened Def Con from 1.02207e-007 to 1.02207e-007
Heightened Def Con from 1.02207e-007 to 1.02207e-007
Heightened Def Con from 1.02207e-007 to 1.02207e-007
Heightened Def Con from 1.02207e-007 to 1.02207e-007
Heightened Def Con from 1.02207e-007 to 1.02207e-007
Heightened Def Con from 1.02207e-007 to 1.02207e-007
Heightened Def Con from 1.02207e-007 to 1.02207e-007
Heightened Def Con from 1.02207e-007 to 1.02207e-007
Heightened Def Con from 1.02207e-007 to 1.02207e-007
Heightened Def Con from 1.02208e-007 to 1.02208e-007
Heightened Def Con from 1.02208e-007 to 1.02208e-007
Heightened Def Con from 1.02208e-007 to 1.02208e-007
Heightened Def Con from 1.02208e-007 to 1.02208e-007
Heightened Def Con from 1.02208e-007 to 1.02208e-007
Heightened Def Con from 1.02208e-007 to 1.02208e-007
Heightened Def Con from 1.02208e-007 to 1.02208e-007
Heightened Def Con from 1.02208e-007 to 1.02208e-007
Heightened Def Con from 1.02208e-007 to 1.02208e-007
Heightened Def Con from 1.02208e-007 to 1.02208e-007
Heightened Def Con from 1.02208e-007 to 1.02208e-007
Heightened Def Con from 1.02208e-007 to 1.02208e-007
Heightened Def Con from 1.02208e-007 to 1.02208e-007
Heightened Def Con from 1.02208e-007 to 1.02208e-007
Heightened Def Con from 1.02208e-007 to 1.02208e-007
Heightened Def Con from 1.02208e-007 to 1.02208e-007
Heightened Def Con from 1.02208e-007 to 1.02209e-007
Heightened Def Con from 1.02209e-007 to 1.02209e-007
Heightened Def Con from 1.02209e-007 to 1.02209e-007
Heightened Def Con from 1.02209e-007 to 1.02209e-007
Heightened Def Con from 1.02209e-007 to 1.02209e-007
Heightened Def Con from 1.02209e-007 to 1.02209e-007
Heightened Def Con from 1.02209e-007 to 1.02209e-007
Heightened Def Con from 1.02209e-007 to 1.02209e-007
Heightened Def Con from 1.02209e-007 to 1.02209e-007
Heightened Def Con from 1.02209e-007 to 1.02209e-007
Heightened Def Con from 1.02209e-007 to 1.02209e-007
Heightened Def Con from 1.02209e-007 +to 1.02209e-007
Heightened Def Con from 1.02209e-007 +to 1.02209e-007
Heightened Def Con from 1.02209e-007 to 1.02209e-007
Heightened Def Con from 1.02209e-007 to 1.02209e-007
Heightened Def Con from 1.02209e-007 +to 1.02209e-007
Heightened Def Con from 1.02209e-007 to 1.0221e-007
Heightened Def Con from 1.0221e-007 to 1.0221e-007
Heightened Def Con from 1.0221e-007 to 1.0221e-007
Heightened Def Con from 1.0221e-007 +to 1.02212e-007
Heightened Def Con from 1.02212e-007 to 1.02212e-007
Heightened Def Con from 1.02212e-007 to 1.02212e-007
Heightened Def Con from 1.02212e-007 to 1.02212e-007
Heightened Def Con from 1.02212e-007 to 1.02212e-007
Heightened Def Con from 1.02212e-007 to 1.02228e-007
Heightened Def Con from 1.02228e-007 to 1.02228e-007
Heightened Def Con from 1.02228e-007 to 1.02228e-007
Heightened Def Con from 1.02228e-007 to 1.02228e-007
Heightened Def Con from 1.02228e-007 to 1.02228e-007
Heightened Def Con from 1.02228e-007 to 1.02228e-007
Heightened Def Con from 1.02228e-007 to 1.02228e-007
Heightened Def Con from 1.02228e-007 to 1.02228e-007
Heightened Def Con from 1.02228e-007 to 1.02228e-007
Heightened Def Con from 1.02228e-007 +to 1.02228e-007
Heightened Def Con from 1.02228e-007 to 1.02228e-007
Heightened Def Con from 1.02228e-007 +to 1.02228e-007
Heightened Def Con from 1.02228e-007 to 1.02228e-007
Heightened Def Con from 1.02228e-007 to 1.02228e-007
Heightened Def Con from 1.02228e-007 to 1.02228e-007
Heightened Def Con from 1.02228e-007 to 1.02228e-007
Heightened Def Con from 1.02228e-007 to 1.02228e-007
Heightened Def Con from 1.02228e-007 to 1.02228e-007
Heightened Def Con from 1.02228e-007 to 1.02228e-007
Heightened Def Con from 1.02228e-007 to 1.02228e-007
Heightened Def Con from 1.02228e-007 to 1.02228e-007
Heightened Def Con from 1.02228e-007 to 1.02228e-007
Heightened Def Con from 1.02228e-007 to 1.02353e-007
Heightened Def Con from 1.02354e-007 to 1.02354e-007
Heightened Def Con from 1.02354e-007 +to 1.02354e-007
Heightened Def Con from 1.02354e-007 to 1.02354e-007
Heightened Def Con from 1.02354e-007 to 1.02354e-007
Heightened Def Con from 1.02354e-007 +to 1.02354e-007
Heightened Def Con from 1.02354e-007 to 1.02354e-007
Heightened Def Con from 1.02354e-007 to 1.02354e-007
Heightened Def Con from 1.02354e-007 to 1.02354e-007
Heightened Def Con from 1.02354e-007 to 1.02354e-007
Heightened Def Con from 1.02354e-007 to 1.02354e-007
Heightened Def Con from 1.02354e-007 to 1.02354e-007
Heightened Def Con from 1.02354e-007 to 1.02354e-007
Heightened Def Con from 1.02354e-007 to 1.02354e-007
Heightened Def Con from 1.02354e-007 to 1.02354e-007
Heightened Def Con from 1.02354e-007 to 1.02354e-007
Heightened Def Con from 1.02354e-007 to 1.02354e-007
Heightened Def Con from 1.02354e-007 +to 1.02354e-007
Heightened Def Con from 1.02354e-007 to 1.02354e-007
Heightened Def Con from 1.02354e-007 to 1.02354e-007
Heightened Def Con from 1.02354e-007 to 1.02354e-007
Heightened Def Con from 1.02354e-007 to 1.02354e-007
Heightened Def Con from 1.02354e-007 to 1.02354e-007
Heightened Def Con from 1.02354e-007 to 1.02354e-007
Heightened Def Con from 1.02354e-007 to 1.02354e-007
Heightened Def Con from 1.02354e-007 +to 1.02354e-007
Heightened Def Con from 1.02354e-007 to 1.02354e-007
Heightened Def Con from 1.02355e-007 to 1.02355e-007
Heightened Def Con from 1.02355e-007 to 1.02355e-007
Heightened Def Con from 1.02355e-007 +to 1.02355e-007
Heightened Def Con from 1.02355e-007 to 1.02355e-007
Heightened Def Con from 1.02355e-007 +to 1.02355e-007
Heightened Def Con from 1.02355e-007 to 1.02355e-007
Heightened Def Con from 1.02355e-007 to 1.02355e-007
Heightened Def Con from 1.02355e-007 to 1.02355e-007
Heightened Def Con from 1.02355e-007 to 1.02355e-007
Heightened Def Con from 1.02355e-007 to 1.02355e-007
Heightened Def Con from 1.02355e-007 to 1.02355e-007
Heightened Def Con from 1.02355e-007 +to 1.02355e-007
Heightened Def Con from 1.02355e-007 to 1.02355e-007
Heightened Def Con from 1.02355e-007 to 1.02355e-007
Heightened Def Con from 1.02355e-007 +to 1.02356e-007
Heightened Def Con from 1.02356e-007 to 1.02356e-007
Heightened Def Con from 1.02356e-007 to 1.02356e-007
Heightened Def Con from 1.02356e-007 to 1.02356e-007
Heightened Def Con from 1.02356e-007 +to 1.02356e-007
Heightened Def Con from 1.02356e-007 to 1.02356e-007
Heightened Def Con from 1.02356e-007 to 1.02356e-007
Heightened Def Con from 1.02356e-007 to 1.02356e-007
Heightened Def Con from 1.02356e-007 +to 1.02356e-007
Heightened Def Con from 1.02356e-007 to 1.02356e-007
Heightened Def Con from 1.02356e-007 to 1.02356e-007
Heightened Def Con from 1.02356e-007 to 1.02356e-007
Heightened Def Con from 1.02356e-007 to 1.02356e-007
Heightened Def Con from 1.02357e-007 to 1.02357e-007
Heightened Def Con from 1.02357e-007 +to 1.02357e-007
Heightened Def Con from 1.02357e-007 to 1.02357e-007
Heightened Def Con from 1.02357e-007 to 1.02357e-007
Heightened Def Con from 1.02357e-007 to 1.02357e-007
Heightened Def Con from 1.02357e-007 to 1.02357e-007
Heightened Def Con from 1.02357e-007 to 1.02357e-007
Heightened Def Con from 1.02357e-007 +to 1.02357e-007
Heightened Def Con from 1.02357e-007 to 1.02357e-007
Heightened Def Con from 1.02357e-007 to 1.02357e-007
Heightened Def Con from 1.02358e-007 to 1.02358e-007
Heightened Def Con from 1.02358e-007 to 1.02358e-007
Heightened Def Con from 1.02358e-007 to 1.02358e-007
Heightened Def Con from 1.02358e-007 to 1.02358e-007
Heightened Def Con from 1.02358e-007 to 1.02358e-007
Heightened Def Con from 1.02358e-007 to 1.02358e-007
Heightened Def Con from 1.02358e-007 to 1.02358e-007
Heightened Def Con from 1.02358e-007 to 1.02358e-007
Heightened Def Con from 1.02358e-007 to 1.02358e-007
Heightened Def Con from 1.02358e-007 to 1.02358e-007
Heightened Def Con from 1.02358e-007 to 1.02358e-007
Heightened Def Con from 1.02358e-007 to 1.02358e-007
[...]
Heightened Def Con from 1.81328e-007 to 1.81328e-007
Heightened Def Con from 1.81328e-007 to 1.81328e-007
Heightened Def Con from 1.81328e-007 to 1.81328e-007
Heightened Def Con from 1.81329e-007 to 1.81329e-007
Heightened Def Con from 1.81329e-007 to 1.81329e-007
Heightened Def Con from 1.81329e-007 to 1.81329e-007
Heightened Def Con from 1.81329e-007 to 1.81329e-007
Heightened Def Con from 1.81329e-007 to 1.81329e-007
Heightened Def Con from 1.81329e-007 to 1.81329e-007
Heightened Def Con from 1.81329e-007 to 1.81329e-007
Heightened Def Con from 1.81329e-007 to 1.81329e-007
Heightened Def Con from 1.81329e-007 to 1.81329e-007
Heightened Def Con from 1.81329e-007 +to 1.81329e-007
Heightened Def Con from 1.81329e-007 to 1.81329e-007
Heightened Def Con from 1.81329e-007 to 1.81329e-007
Heightened Def Con from 1.81329e-007 to 1.81329e-007
Heightened Def Con from 1.81329e-007 to 1.81329e-007
Heightened Def Con from 1.81329e-007 to 1.8133e-007
Heightened Def Con from 1.8133e-007 to 1.8133e-007
Heightened Def Con from 1.8133e-007 +to 1.8133e-007
Heightened Def Con from 1.8133e-007 to 1.8133e-007
Heightened Def Con from 1.8133e-007 to 1.8133e-007
Heightened Def Con from 1.8133e-007 to 1.8133e-007
Heightened Def Con from 1.81331e-007 to 1.81346e-007
Heightened Def Con from 1.81346e-007 to 1.81346e-007
Heightened Def Con from 1.81346e-007 +to 1.81346e-007
Heightened Def Con from 1.81346e-007 to 1.81346e-007
Heightened Def Con from 1.81346e-007 to 1.81346e-007
Heightened Def Con from 1.81346e-007 to 1.81346e-007
Heightened Def Con from 1.81346e-007 to 1.81346e-007
Heightened Def Con from 1.81346e-007 to 1.81346e-007
Heightened Def Con from 1.81346e-007 to 1.81346e-007
Heightened Def Con from 1.81346e-007 to 1.81346e-007
Heightened Def Con from 1.81346e-007 to 1.81347e-007
Heightened Def Con from 1.81347e-007 to 1.81347e-007
Heightened Def Con from 1.81347e-007 to 1.81347e-007
Heightened Def Con from 1.81347e-007 to 1.81347e-007
Heightened Def Con from 1.81347e-007 to 1.81347e-007
Heightened Def Con from 1.81347e-007 to 1.81347e-007
Heightened Def Con from 1.81347e-007 to 1.81347e-007
Heightened Def Con from 1.81347e-007 to 1.81347e-007
Heightened Def Con from 1.81347e-007 to 1.81347e-007
Heightened Def Con from 1.81347e-007 to 1.81347e-007
Heightened Def Con from 1.81347e-007 to 1.81347e-007
Heightened Def Con from 1.81347e-007 to 1.81347e-007
Heightened Def Con from 1.81347e-007 to 1.81347e-007
Heightened Def Con from 1.81347e-007 +to 1.81347e-007
Heightened Def Con from 1.81347e-007 to 1.81347e-007
Heightened Def Con from 1.81347e-007 +to 1.81347e-007
Heightened Def Con from 1.81348e-007 to 1.81348e-007
Heightened Def Con from 1.81348e-007 to 1.81348e-007
Heightened Def Con from 1.81348e-007 to 1.81348e-007
Heightened Def Con from 1.81348e-007 +to 1.81348e-007
Heightened Def Con from 1.81348e-007 to 1.81348e-007
Heightened Def Con from 1.81348e-007 to 1.81348e-007
Heightened Def Con from 1.81348e-007 +to 1.81348e-007
Heightened Def Con from 1.81348e-007 +to 1.81348e-007
Heightened Def Con from 1.81348e-007 to 1.81348e-007
Heightened Def Con from 1.81348e-007 to 1.81348e-007
Heightened Def Con from 1.81348e-007 to 1.81348e-007
Heightened Def Con from 1.81348e-007 to 1.81348e-007
Heightened Def Con from 1.81348e-007 to 1.81348e-007
Heightened Def Con from 1.81348e-007 to 1.81348e-007
Heightened Def Con from 1.81349e-007 to 1.81349e-007
Heightened Def Con from 1.81349e-007 to 1.81349e-007
Heightened Def Con from 1.81349e-007 to 1.81349e-007
Heightened Def Con from 1.81349e-007 to 1.81349e-007
Heightened Def Con from 1.81349e-007 to 1.81349e-007
Heightened Def Con from 1.81349e-007 to 1.81364e-007
Heightened Def Con from 1.81364e-007 to 1.81365e-007
Heightened Def Con from 1.81365e-007 to 1.81365e-007
Heightened Def Con from 1.81365e-007 +to 1.81365e-007
Heightened Def Con from 1.81365e-007 to 1.81367e-007
Heightened Def Con from 1.81367e-007 to 1.81367e-007
Heightened Def Con from 1.81367e-007 to 1.81367e-007
Heightened Def Con from 1.81367e-007 +to 1.81367e-007
Heightened Def Con from 1.81367e-007 to 1.81367e-007
Heightened Def Con from 1.81367e-007 +to 1.81367e-007
Heightened Def Con from 1.81367e-007 to 1.81367e-007
Heightened Def Con from 1.81367e-007 to 1.81367e-007
Heightened Def Con from 1.81367e-007 to 1.81367e-007
Heightened Def Con from 1.81367e-007 to 1.81367e-007
Heightened Def Con from 1.81367e-007 to 1.81367e-007
Heightened Def Con from 1.81367e-007 to 1.81367e-007
Heightened Def Con from 1.81367e-007 to 1.81367e-007
Heightened Def Con from 1.81367e-007 to 1.81383e-007
Heightened Def Con from 1.81383e-007 to 1.81383e-007
Heightened Def Con from 1.81383e-007 +to 1.81383e-007
Heightened Def Con from 1.81383e-007 to 1.81383e-007
Heightened Def Con from 1.81383e-007 to 1.81383e-007
Heightened Def Con from 1.81383e-007 to 1.81383e-007
Heightened Def Con from 1.81383e-007 to 1.81383e-007
Heightened Def Con from 1.81383e-007 to 1.81383e-007
Heightened Def Con from 1.81383e-007 to 1.81383e-007
Heightened Def Con from 1.81383e-007 to 1.81383e-007
Heightened Def Con from 1.81383e-007 to 1.81383e-007
Heightened Def Con from 1.81383e-007 to 1.81383e-007
Heightened Def Con from 1.81383e-007 to 1.81383e-007
Heightened Def Con from 1.81383e-007 to 1.81383e-007
Heightened Def Con from 1.81383e-007 to 1.81383e-007
Heightened Def Con from 1.81383e-007 ++to 1.81384e-007
Heightened Def Con from 1.81384e-007 to 1.81384e-007
Heightened Def Con from 1.81384e-007 to 1.81384e-007
Heightened Def Con from 1.81384e-007 to 1.81384e-007
Heightened Def Con from 1.81384e-007 to 1.81384e-007
Heightened Def Con from 1.81384e-007 to 1.81384e-007
Heightened Def Con from 1.81384e-007 to 1.81384e-007
Heightened Def Con from 1.81384e-007 +to 1.81384e-007
Heightened Def Con from 1.81384e-007 to 1.81384e-007
Heightened Def Con from 1.81385e-007 to 1.81385e-007
Heightened Def Con from 1.81385e-007 to 1.81385e-007
Heightened Def Con from 1.81385e-007 to 1.81385e-007
Heightened Def Con from 1.81385e-007 to 1.81386e-007
Heightened Def Con from 1.81386e-007 to 1.81386e-007
Heightened Def Con from 1.81386e-007 to 1.81386e-007
Heightened Def Con from 1.81386e-007 to 1.81386e-007
Heightened Def Con from 1.81386e-007 to 1.81386e-007
Heightened Def Con from 1.81386e-007 to 1.81386e-007
Heightened Def Con from 1.81386e-007 +to 1.81386e-007
Heightened Def Con from 1.81386e-007 +to 1.81386e-007
Heightened Def Con from 1.81386e-007 to 1.81386e-007
Heightened Def Con from 1.81387e-007 to 1.81387e-007
Heightened Def Con from 1.81387e-007 to 1.81387e-007
Heightened Def Con from 1.81387e-007 to 1.81387e-007
Heightened Def Con from 1.81387e-007 to 1.81387e-007
Heightened Def Con from 1.81387e-007 to 1.81387e-007
Heightened Def Con from 1.81387e-007 to 1.81387e-007
Heightened Def Con from 1.81387e-007 to 1.81387e-007
Heightened Def Con from 1.81387e-007 to 1.81387e-007
Heightened Def Con from 1.81387e-007 to 1.81387e-007
Heightened Def Con from 1.81387e-007 to 1.81387e-007
Heightened Def Con from 1.81387e-007 +to 1.81387e-007
Heightened Def Con from 1.81387e-007 to 1.81387e-007
Heightened Def Con from 1.81387e-007 to 1.81387e-007
Heightened Def Con from 1.81387e-007 to 1.81387e-007
Heightened Def Con from 1.81387e-007 to 1.81387e-007
Heightened Def Con from 1.81387e-007 to 1.81388e-007
Heightened Def Con from 1.81388e-007 to 1.81388e-007
Heightened Def Con from 1.81388e-007 to 1.81388e-007
Heightened Def Con from 1.81388e-007 to 1.81388e-007
Heightened Def Con from 1.81388e-007 to 1.81388e-007
Heightened Def Con from 1.81388e-007 to 1.81388e-007
Heightened Def Con from 1.81388e-007 to 1.81388e-007
Heightened Def Con from 1.81388e-007 to 1.81388e-007
Heightened Def Con from 1.81388e-007 to 1.81388e-007
Heightened Def Con from 1.81388e-007 to 1.81388e-007
Heightened Def Con from 1.81388e-007 to 1.81388e-007
Heightened Def Con from 1.81388e-007 to 1.81388e-007
Heightened Def Con from 1.81388e-007 to 1.81388e-007
Heightened Def Con from 1.81388e-007 to 1.81388e-007
Heightened Def Con from 1.81388e-007 to 1.81388e-007
Heightened Def Con from 1.81388e-007 +to 1.81388e-007
Heightened Def Con from 1.81388e-007 to 1.81388e-007
Heightened Def Con from 1.81388e-007 to 1.81388e-007
Heightened Def Con from 1.81388e-007 to 1.81388e-007
Heightened Def Con from 1.81389e-007 to 1.82389e-007
Heightened Def Con from 1.82389e-007 to 1.82389e-007
Heightened Def Con from 1.82389e-007 +to 1.82389e-007
Heightened Def Con from 1.82389e-007 to 1.82389e-007
Heightened Def Con from 1.82389e-007 +to 1.82389e-007
Heightened Def Con from 1.82389e-007 to 1.82389e-007
Heightened Def Con from 1.82389e-007 to 1.82389e-007
Heightened Def Con from 1.82389e-007 to 1.82389e-007
Heightened Def Con from 1.82389e-007 to 1.82389e-007
Heightened Def Con from 1.82389e-007 to 1.82389e-007
Heightened Def Con from 1.82389e-007 to 1.82389e-007
Heightened Def Con from 1.82389e-007 to 1.82389e-007
Heightened Def Con from 1.82389e-007 to 1.82389e-007
Heightened Def Con from 1.82389e-007 to 1.82389e-007
Heightened Def Con from 1.8239e-007 to 1.8239e-007
Heightened Def Con from 1.8239e-007 to 1.8239e-007
Heightened Def Con from 1.8239e-007 to 1.8239e-007
Heightened Def Con from 1.8239e-007 to 1.8239e-007
Heightened Def Con from 1.8239e-007 to 1.8239e-007
Heightened Def Con from 1.8239e-007 to 1.8239e-007
Heightened Def Con from 1.8239e-007 to 1.8239e-007
Heightened Def Con from 1.8239e-007 to 1.8239e-007
Heightened Def Con from 1.8239e-007 to 1.8239e-007
Heightened Def Con from 1.8239e-007 to 1.8239e-007
Heightened Def Con from 1.8239e-007 to 1.8239e-007
Heightened Def Con from 1.8239e-007 to 1.8239e-007
Heightened Def Con from 1.8239e-007 to 1.8239e-007
Heightened Def Con from 1.8239e-007 to 1.82515e-007
Heightened Def Con from 1.82515e-007 to 1.82515e-007
Heightened Def Con from 1.82515e-007 to 1.82515e-007
Heightened Def Con from 1.82516e-007 +to 1.82516e-007
Heightened Def Con from 1.82516e-007 to 1.82516e-007
Heightened Def Con from 1.82516e-007 to 1.82516e-007
Heightened Def Con from 1.82516e-007 +to 1.82516e-007
Heightened Def Con from 1.82516e-007 to 1.82516e-007
Heightened Def Con from 1.82516e-007 to 1.82516e-007
Heightened Def Con from 1.82516e-007 +to 1.82516e-007
Heightened Def Con from 1.82516e-007 to 1.82516e-007
Heightened Def Con from 1.82516e-007 to 1.82516e-007
Heightened Def Con from 1.82516e-007 to 1.82516e-007
Heightened Def Con from 1.82516e-007 +to 1.82516e-007
Heightened Def Con from 1.82516e-007 to 1.82516e-007
Heightened Def Con from 1.82516e-007 to 1.82517e-007
Heightened Def Con from 1.82517e-007 to 1.82517e-007
Heightened Def Con from 1.82517e-007 to 1.82517e-007
Heightened Def Con from 1.82517e-007 to 1.82517e-007
Heightened Def Con from 1.82517e-007 to 1.82517e-007
Heightened Def Con from 1.82517e-007 +to 1.82517e-007
Heightened Def Con from 1.82517e-007 to 1.82517e-007
Heightened Def Con from 1.82517e-007 to 1.82517e-007
Heightened Def Con from 1.82517e-007 to 1.82517e-007
Heightened Def Con from 1.82517e-007 +to 1.82517e-007
Heightened Def Con from 1.82517e-007 to 1.82517e-007
Heightened Def Con from 1.82517e-007 to 1.82517e-007
Heightened Def Con from 1.82517e-007 to 1.82517e-007
Heightened Def Con from 1.82517e-007 to 1.82533e-007
Heightened Def Con from 1.82533e-007 to 1.82533e-007
Heightened Def Con from 1.82533e-007 to 1.82533e-007
Heightened Def Con from 1.82533e-007 to 1.82535e-007
Heightened Def Con from 1.82535e-007 to 1.82535e-007
Heightened Def Con from 1.82535e-007 to 1.82535e-007
Heightened Def Con from 1.82535e-007 to 1.82535e-007
Heightened Def Con from 1.82535e-007 to 1.82535e-007
Heightened Def Con from 1.82535e-007 to 1.82535e-007
Heightened Def Con from 1.82535e-007 to 1.82536e-007
Heightened Def Con from 1.82536e-007 to 1.82536e-007
Heightened Def Con from 1.82536e-007 to 1.82536e-007
Heightened Def Con from 1.82536e-007 to 1.82536e-007
Heightened Def Con from 1.82536e-007 +to 1.82536e-007
Heightened Def Con from 1.82536e-007 to 1.82536e-007
Heightened Def Con from 1.82536e-007 +to 1.82536e-007
Heightened Def Con from 1.82536e-007 to 1.82536e-007
Heightened Def Con from 1.82536e-007 to 1.82536e-007
Heightened Def Con from 1.82536e-007 to 1.82536e-007
Heightened Def Con from 1.82536e-007 to 1.82536e-007
Heightened Def Con from 1.82536e-007 to 1.82536e-007
Heightened Def Con from 1.82536e-007 to 1.82536e-007
Heightened Def Con from 1.82536e-007 to 1.82536e-007
Heightened Def Con from 1.82536e-007 to 1.82536e-007
Heightened Def Con from 1.82536e-007 to 1.82536e-007
Heightened Def Con from 1.82536e-007 to 1.82536e-007
Heightened Def Con from 1.82536e-007 to 1.82536e-007
Heightened Def Con from 1.82536e-007 to 1.82536e-007
Heightened Def Con from 1.82537e-007 to 1.82537e-007
Heightened Def Con from 1.82537e-007 +to 1.82537e-007
Heightened Def Con from 1.82537e-007 +to 1.82537e-007
Heightened Def Con from 1.82537e-007 to 1.82537e-007
Heightened Def Con from 1.82537e-007 to 1.82537e-007
Heightened Def Con from 1.82537e-007 to 1.82537e-007
Heightened Def Con from 1.82537e-007 to 1.82537e-007
Heightened Def Con from 1.82537e-007 +to 1.82537e-007
Heightened Def Con from 1.82537e-007 to 1.82537e-007
Heightened Def Con from 1.82537e-007 to 1.82537e-007
Heightened Def Con from 1.82537e-007 +to 1.82539e-007
Heightened Def Con from 1.82539e-007 to 1.8254e-007
Heightened Def Con from 1.8254e-007 to 1.8254e-007
Heightened Def Con from 1.8254e-007 +to 1.8254e-007
Heightened Def Con from 1.8254e-007 to 1.8254e-007
Heightened Def Con from 1.8254e-007 to 1.8254e-007
Heightened Def Con from 1.8254e-007 to 1.8254e-007
Heightened Def Con from 1.8254e-007 to 1.8254e-007
Heightened Def Con from 1.8254e-007 to 1.8254e-007
Heightened Def Con from 1.8254e-007 to 1.8254e-007
Heightened Def Con from 1.8254e-007 to 1.8254e-007
Heightened Def Con from 1.8254e-007 to 1.8254e-007
Heightened Def Con from 1.8254e-007 to 1.8254e-007
Heightened Def Con from 1.8254e-007 to 1.8254e-007
Heightened Def Con from 1.8254e-007 to 1.8254e-007
Heightened Def Con from 1.8254e-007 to 1.8254e-007
Heightened Def Con from 1.8254e-007 to 1.8254e-007
Heightened Def Con from 1.8254e-007 to 1.8254e-007
Heightened Def Con from 1.8254e-007 to 1.82541e-007
Heightened Def Con from 1.82541e-007 to 1.82541e-007
Heightened Def Con from 1.82541e-007 to 1.82541e-007
Heightened Def Con from 1.82541e-007 to 1.82541e-007
Heightened Def Con from 1.82541e-007 to 1.82541e-007
Heightened Def Con from 1.82541e-007 +to 1.82541e-007
Heightened Def Con from 1.82541e-007 to 1.82541e-007
Heightened Def Con from 1.82541e-007 to 1.82541e-007
Heightened Def Con from 1.82541e-007 to 1.82541e-007
Heightened Def Con from 1.82541e-007 to 1.82541e-007
Heightened Def Con from 1.82541e-007 to 1.82541e-007
Heightened Def Con from 1.82541e-007 to 1.82541e-007
Heightened Def Con from 1.82541e-007 to 1.82541e-007
Heightened Def Con from 1.82542e-007 to 1.82542e-007
Heightened Def Con from 1.82542e-007 to 1.82542e-007
Heightened Def Con from 1.82542e-007 to 1.82542e-007
Heightened Def Con from 1.82542e-007 to 1.82542e-007
Heightened Def Con from 1.82542e-007 to 1.82542e-007
Heightened Def Con from 1.82542e-007 to 1.82542e-007
Heightened Def Con from 1.82542e-007 to 1.82542e-007
Heightened Def Con from 1.82542e-007 to 1.82542e-007
Heightened Def Con from 1.82542e-007 to 1.82542e-007
Heightened Def Con from 1.82542e-007 to 1.82542e-007
Heightened Def Con from 1.82542e-007 to 1.82542e-007
Heightened Def Con from 1.82542e-007 to 1.82542e-007
Heightened Def Con from 1.82542e-007 to 1.82542e-007
Heightened Def Con from 1.82542e-007 to 1.82542e-007
Heightened Def Con from 1.82542e-007 to 1.82542e-007
Heightened Def Con from 1.82542e-007 to 1.82542e-007
Heightened Def Con from 1.82542e-007 to 1.82542e-007
Heightened Def Con from 1.82542e-007 to 1.82542e-007
Heightened Def Con from 1.82542e-007 to 1.82542e-007
Heightened Def Con from 1.82542e-007 to 1.82542e-007
Heightened Def Con from 1.82542e-007 to 1.82542e-007
Heightened Def Con from 1.82542e-007 to 1.82542e-007
Heightened Def Con from 1.82542e-007 to 1.82542e-007
Heightened Def Con from 1.82542e-007 to 1.82542e-007
Heightened Def Con from 1.82542e-007 to 1.82542e-007
Heightened Def Con from 1.82542e-007 to 1.82542e-007
Heightened Def Con from 1.82542e-007 to 1.82542e-007
Heightened Def Con from 1.82542e-007 to 1.82542e-007
Heightened Def Con from 1.82542e-007 to 1.82542e-007
Heightened Def Con from 1.82542e-007 +to 1.82542e-007
Heightened Def Con from 1.82542e-007 to 1.82542e-007
Heightened Def Con from 1.82542e-007 +to 1.82542e-007
Heightened Def Con from 1.82542e-007 +to 1.82543e-007
Heightened Def Con from 1.82543e-007 to 1.82543e-007
Heightened Def Con from 1.82543e-007 to 1.82543e-007
Heightened Def Con from 1.82543e-007 to 1.82543e-007
Heightened Def Con from 1.82543e-007 to 1.82543e-007
Heightened Def Con from 1.82543e-007 +to 1.82543e-007
Heightened Def Con from 1.82543e-007 to 1.82543e-007
Heightened Def Con from 1.82543e-007 to 1.82543e-007
Heightened Def Con from 1.82543e-007 +to 1.82543e-007
Heightened Def Con from 1.82543e-007 to 1.82543e-007
Heightened Def Con from 1.82543e-007 to 1.82543e-007
Heightened Def Con from 1.82543e-007 to 1.82543e-007
Heightened Def Con from 1.82543e-007 to 1.82543e-007
Heightened Def Con from 1.82543e-007 to 1.82543e-007
Heightened Def Con from 1.82543e-007 to 1.82543e-007
Heightened Def Con from 1.82543e-007 +to 1.82543e-007
Heightened Def Con from 1.82543e-007 to 1.82543e-007
Heightened Def Con from 1.82543e-007 to 1.82543e-007
Heightened Def Con from 1.82543e-007 to 1.82543e-007
Heightened Def Con from 1.82543e-007 to 1.82544e-007
Heightened Def Con from 1.82544e-007 to 1.82544e-007
Heightened Def Con from 1.82544e-007 to 1.82544e-007
Heightened Def Con from 1.82544e-007 to 1.82544e-007
Heightened Def Con from 1.82544e-007 to 1.82544e-007
Heightened Def Con from 1.82544e-007 to 1.82544e-007
Heightened Def Con from 1.82544e-007 to 1.82544e-007
Heightened Def Con from 1.82544e-007 to 1.82544e-007
Heightened Def Con from 1.82544e-007 to 1.82544e-007
Heightened Def Con from 1.82544e-007 to 1.82544e-007
Heightened Def Con from 1.82544e-007 to 1.82544e-007
Heightened Def Con from 1.82544e-007 to 1.82544e-007
Heightened Def Con from 1.82544e-007 to 1.82544e-007
Heightened Def Con from 1.82544e-007 to 1.82544e-007
Heightened Def Con from 1.82544e-007 to 1.82544e-007
Heightened Def Con from 1.82544e-007 +to 1.82544e-007
Heightened Def Con from 1.82544e-007 to 1.82544e-007
Heightened Def Con from 1.82544e-007 to 1.82544e-007
Heightened Def Con from 1.82544e-007 to 1.82544e-007
Heightened Def Con from 1.82544e-007 to 1.82544e-007
Heightened Def Con from 1.82544e-007 to 1.82544e-007
Heightened Def Con from 1.82544e-007 to 1.82544e-007
Heightened Def Con from 1.82544e-007 to 1.82544e-007
Heightened Def Con from 1.82544e-007 to 1.82544e-007
Heightened Def Con from 1.82544e-007 to 1.82544e-007
Heightened Def Con from 1.82544e-007 to 1.82544e-007
Heightened Def Con from 1.82544e-007 to 1.82544e-007
Heightened Def Con from 1.82544e-007 +to 1.82544e-007
Heightened Def Con from 1.82544e-007 to 1.82544e-007
Heightened Def Con from 1.82544e-007 to 1.82544e-007
Heightened Def Con from 1.82544e-007 to 1.82544e-007
Heightened Def Con from 1.82545e-007 to 1.82545e-007
Heightened Def Con from 1.82545e-007 +to 1.82545e-007
Heightened Def Con from 1.82545e-007 to 1.82545e-007
Heightened Def Con from 1.82545e-007 to 1.82545e-007
Heightened Def Con from 1.82545e-007 to 1.82545e-007
Heightened Def Con from 1.82545e-007 +to 1.82545e-007
Heightened Def Con from 1.82545e-007 to 1.82545e-007
Heightened Def Con from 1.82545e-007 to 1.82545e-007
Heightened Def Con from 1.82545e-007 +to 1.82545e-007
Heightened Def Con from 1.82545e-007 to 1.82545e-007

Date: Sat May 13 18:53:36 2023
Total elapsed time: 41.388 seconds.

tnom = 27
temp = 27
method = modified trap
totiter = 8241028
traniter = 8238295
tranpoints = 931721
accept = 374952
rejected = 599058
matrix size = 36
fillins = 42
solver = Normal
Matrix Compiler1: 3.82 KB object code size  1.2/0.5/[0.4]
Matrix Compiler2: off  [0.5]/0.6/1.2

