Circuit: * C:\users\leonardo\Desktop\FSAE\inverter-simulation\inverter-spice.asc

Direct Newton iteration failed to find .op point.  (Use ".option noopiter" to skip.)
Starting Gmin stepping
Gmin = 10
Gmin = 1.07374
Gmin = 0.115292
Gmin = 0.0123794
Gmin = 0.00132923
Gmin = 0.000142725
Gmin = 1.5325e-005
Gmin = 1.6455e-006
Gmin = 1.76685e-007
Gmin = 1.89714e-008
Gmin = 2.03704e-009
vernier = 0.5
Gmin = 5.7877e-010
vernier = 0.25
vernier = 0.125
Gmin = 4.79972e-010
vernier = 0.166667
vernier = 0.0833333
vernier = 0.0416667
Gmin = 3.872e-010
vernier = 0.0208333
vernier = 0.0104167
vernier = 0.00520833
Gmin = 3.87184e-010
vernier = 0.00260417
vernier = 0.00130208
vernier = 0.000651042
vernier = 0.000488281
Gmin = 3.87136e-010
Gmin = 0
Gmin stepping succeeded in finding the operating point.

Changing Tseed to 6e-010
Changing Tseed to 6e-012
Changing Tseed to 6e-009
Changing Tseed to 6e-013
Changing Tseed to 6e-008
Changing Tseed to 6e-014
Changing Tseed to 6e-007
Heightened Def Con from 6e-007 ++++++++++++++++++++++++++++++++++++++++++++++++++Fatal Error: Analysis:  Time step too small; time = 6e-007, timestep = 1.25e-019: trouble with z1:1:msub-instance m:z1:1:1

