Circuit: * C:\users\leonardo\Desktop\FSAE\inverter-simulation\inverter-spice.asc

Direct Newton iteration failed to find .op point.  (Use ".option noopiter" to skip.)
Starting Gmin stepping
Gmin = 10
Gmin = 1.07374
Gmin = 0.115292
Gmin = 0.0123794
Gmin = 0.00132923
Gmin = 0.000142725
Gmin = 1.5325e-005
Gmin = 1.6455e-006
Gmin = 1.76685e-007
Gmin = 1.89714e-008
Gmin = 2.03704e-009
vernier = 0.5
Gmin = 5.7877e-010
vernier = 0.25
vernier = 0.125
Gmin = 4.79972e-010
vernier = 0.166667
vernier = 0.0833333
vernier = 0.0416667
Gmin = 3.872e-010
vernier = 0.0208333
vernier = 0.0104167
vernier = 0.00520833
Gmin = 3.87184e-010
vernier = 0.00260417
vernier = 0.00130208
vernier = 0.000651042
vernier = 0.000488281
Gmin = 3.87136e-010
Gmin = 0
Gmin stepping succeeded in finding the operating point.

Changing Tseed to 1.95313e-010
Changing Tseed to 1.95312e-012
Changing Tseed to 1.95312e-009
Changing Tseed to 1.95313e-013
Changing Tseed to 1.95312e-008
Changing Tseed to 1.95312e-014
Changing Tseed to 1.95312e-007
Changing Tseed to 1.95312e-015
Heightened Def Con from 1.95894e-015 to 3.62912e-014
Heightened Def Con from 3.62912e-014 to 7.06235e-014
Heightened Def Con from 7.06235e-014 to 3.15241e-013
Heightened Def Con from 3.15243e-013 +to 3.5339e-013
Heightened Def Con from 3.60066e-013 to 4.24915e-013
Heightened Def Con from 4.78957e-013 to 4.86586e-013
Heightened Def Con from 4.86649e-013 +to 4.87126e-013
Heightened Def Con from 4.88099e-013 to 5.52949e-013
Heightened Def Con from 5.53158e-013 +to 5.64602e-013
Heightened Def Con from 5.89221e-013 to 5.90175e-013
Heightened Def Con from 5.91266e-013 ++to 1.3275e-012
Heightened Def Con from 1.36107e-012 to 1.36113e-012
Heightened Def Con from 1.36113e-012 to 1.39171e-012
Heightened Def Con from 1.39172e-012 to 1.39267e-012
Heightened Def Con from 1.46446e-012 to 1.46452e-012
Heightened Def Con from 1.46469e-012 to 1.47233e-012
Heightened Def Con from 1.47238e-012 to 1.47667e-012
Heightened Def Con from 1.47891e-012 to 1.51324e-012
Heightened Def Con from 1.65672e-012 to 1.65725e-012
Heightened Def Con from 1.6573e-012 to 1.6654e-012
Heightened Def Con from 1.66686e-012 to 1.67831e-012
Heightened Def Con from 1.67831e-012 +to 1.71264e-012
Heightened Def Con from 1.71278e-012 to 1.74711e-012
Heightened Def Con from 1.80052e-012 to 1.80433e-012
Heightened Def Con from 1.81258e-012 to 2.06053e-012
Heightened Def Con from 2.0619e-012 to 2.06286e-012
Heightened Def Con from 2.06286e-012 to 2.06292e-012
Heightened Def Con from 2.06292e-012 +to 2.07484e-012
Heightened Def Con from 2.08664e-012 to 2.12097e-012
Heightened Def Con from 2.12097e-012 to 2.12908e-012
Heightened Def Con from 2.12908e-012 +to 2.14434e-012
Heightened Def Con from 2.14767e-012 to 2.14815e-012
Heightened Def Con from 2.14815e-012 +to 2.39277e-012
Heightened Def Con from 2.39298e-012 +to 2.40824e-012
Heightened Def Con from 2.42278e-012 to 2.42284e-012
Heightened Def Con from 2.42285e-012 to 2.6975e-012
Heightened Def Con from 2.69792e-012 to 2.73225e-012
Heightened Def Con from 2.74179e-012 to 2.80664e-012
Heightened Def Con from 2.81427e-012 to 2.87912e-012
Heightened Def Con from 2.88675e-012 +to 2.89534e-012
Heightened Def Con from 2.89535e-012 to 2.92634e-012
Heightened Def Con from 2.92634e-012 to 2.9264e-012
Heightened Def Con from 2.9264e-012 to 2.96074e-012
Heightened Def Con from 3.05765e-012 to 3.05813e-012
Heightened Def Con from 3.05813e-012 to 3.06576e-012
Heightened Def Con from 3.06625e-012 to 3.15781e-012
Heightened Def Con from 3.15819e-012 to 3.16248e-012
Heightened Def Con from 3.27596e-012 +to 3.34081e-012
Heightened Def Con from 3.3418e-012 to 3.34943e-012
Heightened Def Con from 3.34943e-012 ++to 3.62409e-012
Heightened Def Con from 3.62614e-012 to 3.66047e-012
Heightened Def Con from 3.66855e-012 to 3.70288e-012
Heightened Def Con from 3.73961e-012 to 3.74015e-012
Heightened Def Con from 3.74027e-012 to 3.77461e-012
Heightened Def Con from 3.88905e-012 to 3.95014e-012
Heightened Def Con from 3.95035e-012 to 3.95036e-012
Heightened Def Con from 3.95036e-012 to 3.95036e-012
Heightened Def Con from 3.95044e-012 to 3.95045e-012
Heightened Def Con from 3.95045e-012 to 3.98478e-012
Heightened Def Con from 3.98493e-012 +to 4.01927e-012
Heightened Def Con from 4.04275e-012 +to 4.04656e-012
Heightened Def Con from 4.05026e-012 to 4.05075e-012
Heightened Def Con from 4.05077e-012 to 4.08176e-012
Heightened Def Con from 4.08176e-012 to 4.11609e-012
Heightened Def Con from 4.12372e-012 to 4.12801e-012
Heightened Def Con from 4.12801e-012 to 4.12802e-012
Heightened Def Con from 4.12802e-012 to 4.12802e-012
Heightened Def Con from 4.12802e-012 +to 4.37264e-012
Heightened Def Con from 4.37264e-012 to 4.43367e-012
Heightened Def Con from 4.43367e-012 to 4.43416e-012
Heightened Def Con from 4.43416e-012 +to 6.3911e-012
Heightened Def Con from 6.3911e-012 to 6.45595e-012
Heightened Def Con from 6.45596e-012 +to 6.45977e-012
Heightened Def Con from 6.45977e-012 to 8.44341e-012
Heightened Def Con from 8.44439e-012 to 8.47873e-012
Heightened Def Con from 8.47876e-012 +to 8.54361e-012
Heightened Def Con from 8.54361e-012 to 8.81827e-012
Heightened Def Con from 8.8793e-012 to 9.15396e-012
Heightened Def Con from 9.15397e-012 +to 9.19212e-012
Heightened Def Con from 9.19662e-012 to 9.20091e-012
Heightened Def Con from 9.20091e-012 to 9.23191e-012
Heightened Def Con from 9.23191e-012 to 9.23191e-012
Heightened Def Con from 9.23191e-012 +to 9.2362e-012
Heightened Def Con from 9.2362e-012 +to 9.25146e-012
Heightened Def Con from 9.25146e-012 to 9.3125e-012
Heightened Def Con from 9.3125e-012 to 9.31631e-012
Heightened Def Con from 9.31939e-012 to 9.34997e-012
Heightened Def Con from 9.34997e-012 to 9.3843e-012
Heightened Def Con from 9.3843e-012 to 9.44534e-012
Heightened Def Con from 9.44534e-012 to 9.45678e-012
Heightened Def Con from 9.45678e-012 to 9.45726e-012
Heightened Def Con from 9.45726e-012 to 9.5183e-012
Heightened Def Con from 9.51843e-012 to 9.76305e-012
Heightened Def Con from 9.76305e-012 to 9.77449e-012
Heightened Def Con from 9.78237e-012 to 9.78285e-012
Heightened Def Con from 9.78285e-012 +to 9.78666e-012
Heightened Def Con from 9.78752e-012 to 9.78799e-012
Heightened Def Con from 9.80897e-012 to 9.80945e-012
Heightened Def Con from 9.81279e-012 to 9.82042e-012
Heightened Def Con from 9.82054e-012 to 9.82102e-012
Heightened Def Con from 9.82137e-012 to 9.85571e-012
Heightened Def Con from 9.85739e-012 to 9.91843e-012
Heightened Def Con from 9.91843e-012 to 9.92224e-012
Heightened Def Con from 9.93074e-012 +to 9.93456e-012
Heightened Def Con from 9.93456e-012 to 9.93837e-012
Heightened Def Con from 9.93837e-012 to 9.9727e-012
Heightened Def Con from 9.97557e-012 to 9.97604e-012
Heightened Def Con from 1.00498e-011 +to 1.00841e-011
Heightened Def Con from 1.00841e-011 to 1.00879e-011
Heightened Def Con from 1.01211e-011 to 1.01821e-011
Heightened Def Con from 1.01832e-011 to 1.01909e-011
Heightened Def Con from 1.02519e-011 to 1.02519e-011
Heightened Def Con from 1.02519e-011 to 1.02863e-011
Heightened Def Con from 1.02883e-011 to 1.02926e-011
Heightened Def Con from 1.02926e-011 to 1.03236e-011
Heightened Def Con from 1.03237e-011 to 1.03547e-011
Heightened Def Con from 1.03586e-011 to 1.03929e-011
Heightened Def Con from 1.04006e-011 to 1.0402e-011
Heightened Def Con from 1.0402e-011 to 1.04135e-011
Heightened Def Con from 1.04217e-011 to 1.0456e-011
Heightened Def Con from 1.0456e-011 to 1.04561e-011
Heightened Def Con from 1.04561e-011 to 1.0457e-011
Heightened Def Con from 1.0457e-011 +to 1.04914e-011
Heightened Def Con from 1.04923e-011 to 1.05266e-011
Heightened Def Con from 1.05266e-011 to 1.05305e-011
Heightened Def Con from 1.05306e-011 +to 1.05387e-011
Heightened Def Con from 1.05387e-011 to 1.05464e-011
Heightened Def Con from 1.05589e-011 to 1.06199e-011
Heightened Def Con from 1.06208e-011 +to 1.0659e-011
Heightened Def Con from 1.06612e-011 to 1.06612e-011
Heightened Def Con from 1.06612e-011 to 1.06956e-011
Heightened Def Con from 1.07032e-011 to 1.07108e-011
Heightened Def Con from 1.07186e-011 to 1.07186e-011
Heightened Def Con from 1.07186e-011 to 1.07495e-011
Heightened Def Con from 1.07495e-011 to 1.07534e-011
Heightened Def Con from 1.07534e-011 to 1.07844e-011
Heightened Def Con from 1.07844e-011 to 1.07853e-011
Heightened Def Con from 1.07853e-011 to 1.07853e-011
Heightened Def Con from 1.07853e-011 +to 1.07896e-011
Heightened Def Con from 1.07896e-011 to 1.3582e-010
Heightened Def Con from 1.3582e-010 to 1.35821e-010
Heightened Def Con from 1.35821e-010 to 1.35825e-010
Heightened Def Con from 1.35825e-010 +to 1.35886e-010
Heightened Def Con from 1.35886e-010 to 1.35886e-010
Heightened Def Con from 1.35886e-010 to 1.36161e-010
Heightened Def Con from 1.36251e-010 to 1.36316e-010
Heightened Def Con from 1.36316e-010 to 1.36351e-010
Heightened Def Con from 1.36351e-010 +to 1.36385e-010
Heightened Def Con from 1.36385e-010 to 1.36446e-010
Heightened Def Con from 1.36457e-010 +to 1.36465e-010
Heightened Def Con from 1.36465e-010 to 1.36499e-010
Heightened Def Con from 1.36507e-010 to 1.36518e-010
Heightened Def Con from 1.36526e-010 to 1.36587e-010
Heightened Def Con from 1.36617e-010 to 1.36621e-010
Heightened Def Con from 1.36625e-010 to 1.36656e-010
Heightened Def Con from 1.36656e-010 to 1.36663e-010
Heightened Def Con from 1.3671e-010 to 1.36744e-010
Heightened Def Con from 1.36841e-010 to 1.36842e-010
Heightened Def Con from 1.36908e-010 to 1.36943e-010
Heightened Def Con from 1.36943e-010 to 1.3695e-010
Heightened Def Con from 1.37093e-010 to 1.37097e-010
Heightened Def Con from 1.37097e-010 +to 1.37131e-010
Heightened Def Con from 1.37132e-010 to 1.37136e-010
Heightened Def Con from 1.37136e-010 to 1.37148e-010
Heightened Def Con from 1.37155e-010 to 1.37189e-010
Heightened Def Con from 1.372e-010 to 1.37205e-010
Heightened Def Con from 1.37207e-010 to 1.37211e-010
Heightened Def Con from 1.37242e-010 to 1.37246e-010
Heightened Def Con from 1.37246e-010 to 1.3728e-010
Heightened Def Con from 1.37288e-010 to 1.37322e-010
Heightened Def Con from 1.3733e-010 to 1.37364e-010
Heightened Def Con from 1.37364e-010 +to 1.37425e-010
Heightened Def Con from 1.37486e-010 to 1.37494e-010
Heightened Def Con from 1.37495e-010 to 1.3753e-010
Heightened Def Con from 1.3753e-010 to 1.37534e-010
Heightened Def Con from 1.37534e-010 to 1.37569e-010
Heightened Def Con from 1.37634e-010 +to 1.37641e-010
Heightened Def Con from 1.37645e-010 to 1.37646e-010
Heightened Def Con from 1.37646e-010 to 1.37707e-010
Heightened Def Con from 1.3782e-010 to 1.37854e-010
Heightened Def Con from 1.37935e-010 to 1.37935e-010
Heightened Def Con from 1.37935e-010 +to 1.37966e-010
Heightened Def Con from 1.37976e-010 to 1.3801e-010
Heightened Def Con from 1.38013e-010 to 1.38074e-010
Heightened Def Con from 1.38144e-010 to 1.38205e-010
Heightened Def Con from 1.38286e-010 +to 1.38294e-010
Heightened Def Con from 1.38313e-010 +to 1.38588e-010
Heightened Def Con from 1.38595e-010 to 1.38595e-010
Heightened Def Con from 1.38596e-010 to 1.3863e-010
Heightened Def Con from 1.38677e-010 to 1.38925e-010
Heightened Def Con from 1.38947e-010 to 1.38978e-010
Heightened Def Con from 1.38978e-010 to 1.38978e-010
Heightened Def Con from 1.38978e-010 +to 1.38986e-010
Heightened Def Con from 1.38986e-010 to 1.38994e-010
Heightened Def Con from 1.38994e-010 to 1.38998e-010
Heightened Def Con from 1.38998e-010 to 1.39029e-010
Heightened Def Con from 1.3903e-010 +to 1.3906e-010
Heightened Def Con from 1.39149e-010 +to 1.39184e-010
Heightened Def Con from 1.39273e-010 +to 1.39281e-010
Heightened Def Con from 1.39291e-010 to 1.39295e-010
Heightened Def Con from 1.39295e-010 to 1.39356e-010
Heightened Def Con from 1.39418e-010 to 1.39418e-010
Heightened Def Con from 1.39418e-010 to 1.39452e-010
Heightened Def Con from 1.39473e-010 to 1.39473e-010
Heightened Def Con from 1.39473e-010 to 1.39481e-010
Heightened Def Con from 1.39482e-010 to 1.39489e-010
Heightened Def Con from 1.39495e-010 to 1.39556e-010
Heightened Def Con from 1.39654e-010 +to 1.39655e-010
Heightened Def Con from 1.39655e-010 to 1.39663e-010
Heightened Def Con from 1.39663e-010 to 1.39694e-010
Heightened Def Con from 1.39694e-010 to 1.39728e-010
Heightened Def Con from 1.39732e-010 to 1.39739e-010
Heightened Def Con from 1.39755e-010 to 1.40003e-010
Heightened Def Con from 1.40003e-010 to 1.40011e-010
Heightened Def Con from 1.40021e-010 to 1.40055e-010
Heightened Def Con from 1.40056e-010 to 1.40063e-010
Heightened Def Con from 1.4008e-010 to 1.40084e-010
Heightened Def Con from 1.40084e-010 to 1.40115e-010
Heightened Def Con from 1.40115e-010 to 1.40149e-010
Heightened Def Con from 1.40157e-010 to 1.40165e-010
Heightened Def Con from 1.40172e-010 to 1.4018e-010
Heightened Def Con from 1.40187e-010 to 1.40192e-010
Heightened Def Con from 1.40192e-010 to 1.40226e-010
Heightened Def Con from 1.40237e-010 +to 1.40245e-010
Heightened Def Con from 1.40246e-010 +to 1.4028e-010
Heightened Def Con from 1.40294e-010 +to 1.40324e-010
Heightened Def Con from 1.40362e-010 to 1.40369e-010
Heightened Def Con from 1.40391e-010 to 1.40452e-010
Heightened Def Con from 1.40459e-010 to 1.4046e-010
Heightened Def Con from 1.4046e-010 to 1.40468e-010
Heightened Def Con from 1.40474e-010 to 1.40535e-010
Heightened Def Con from 1.40555e-010 +to 1.40586e-010
Heightened Def Con from 1.40619e-010 to 1.40867e-010
Heightened Def Con from 1.41018e-010 to 1.41053e-010
Heightened Def Con from 1.41054e-010 to 1.41061e-010
Heightened Def Con from 1.41064e-010 +to 1.41369e-010
Heightened Def Con from 1.41432e-010 to 1.4144e-010
Heightened Def Con from 1.41443e-010 to 1.41504e-010
Heightened Def Con from 1.41606e-010 to 1.4161e-010
Heightened Def Con from 1.41638e-010 to 1.41639e-010
Heightened Def Con from 1.41639e-010 to 1.41673e-010
Heightened Def Con from 1.41681e-010 to 1.41685e-010
Heightened Def Con from 1.41863e-010 to 1.4187e-010
Heightened Def Con from 1.41935e-010 to 1.41939e-010
Heightened Def Con from 1.41942e-010 to 1.41942e-010
Heightened Def Con from 1.41942e-010 to 1.41949e-010
Heightened Def Con from 1.41984e-010 to 1.41991e-010
Heightened Def Con from 1.42012e-010 +to 1.42016e-010
Heightened Def Con from 1.42026e-010 to 1.4203e-010
Heightened Def Con from 1.42031e-010 +to 1.42065e-010
Heightened Def Con from 1.42065e-010 +to 1.42066e-010
Heightened Def Con from 1.42066e-010 to 1.42069e-010
Heightened Def Con from 1.42069e-010 to 1.42077e-010
Heightened Def Con from 1.42078e-010 to 1.42082e-010
Heightened Def Con from 1.42082e-010 to 1.42143e-010
Heightened Def Con from 1.42143e-010 to 1.42174e-010
Heightened Def Con from 1.42179e-010 to 1.42187e-010
Heightened Def Con from 1.42194e-010 to 1.42202e-010
Heightened Def Con from 1.42202e-010 to 1.42202e-010
Heightened Def Con from 1.42202e-010 to 1.4221e-010
Heightened Def Con from 1.4221e-010 to 1.4221e-010
Heightened Def Con from 1.4221e-010 to 1.42244e-010
Heightened Def Con from 1.42268e-010 +to 1.42271e-010
Heightened Def Con from 1.42279e-010 +to 1.4231e-010
Heightened Def Con from 1.42314e-010 to 1.42314e-010
Heightened Def Con from 1.42314e-010 +to 1.42321e-010
Heightened Def Con from 1.42344e-010 to 1.42352e-010
Heightened Def Con from 1.42477e-010 to 1.42482e-010
Heightened Def Con from 1.42482e-010 to 1.4249e-010
Heightened Def Con from 1.42496e-010 to 1.425e-010
Heightened Def Con from 1.42501e-010 to 1.42562e-010
Heightened Def Con from 1.42569e-010 +to 1.426e-010
Heightened Def Con from 1.426e-010 to 1.426e-010
Heightened Def Con from 1.426e-010 to 1.42631e-010
Heightened Def Con from 1.42631e-010 to 1.42665e-010
Heightened Def Con from 1.42688e-010 to 1.42692e-010
Heightened Def Con from 1.42759e-010 to 1.42759e-010
Heightened Def Con from 1.42759e-010 to 1.42767e-010
Heightened Def Con from 1.4282e-010 to 1.42881e-010
Heightened Def Con from 1.42882e-010 to 1.42882e-010
Heightened Def Con from 1.42883e-010 to 1.4289e-010
Heightened Def Con from 1.42898e-010 to 1.42928e-010
Heightened Def Con from 1.42929e-010 to 1.4296e-010
Heightened Def Con from 1.43006e-010 to 1.43013e-010
Heightened Def Con from 1.4303e-010 to 1.43304e-010
Heightened Def Con from 1.43311e-010 to 1.43312e-010
Heightened Def Con from 1.43312e-010 to 1.43556e-010
Heightened Def Con from 1.43558e-010 to 1.4362e-010
Heightened Def Con from 1.43624e-010 to 1.43632e-010
Heightened Def Con from 1.43632e-010 to 1.43632e-010
Heightened Def Con from 1.43632e-010 to 1.43907e-010
Heightened Def Con from 1.43907e-010 to 1.43907e-010
Heightened Def Con from 1.43907e-010 to 1.43941e-010
Heightened Def Con from 1.43949e-010 to 1.4398e-010
Heightened Def Con from 1.44017e-010 to 1.44078e-010
Heightened Def Con from 1.4408e-010 to 1.4411e-010
Heightened Def Con from 1.4411e-010 to 1.44144e-010
Heightened Def Con from 1.44148e-010 to 1.44152e-010
Heightened Def Con from 1.44157e-010 to 1.44165e-010
Heightened Def Con from 1.44187e-010 to 1.44194e-010
Heightened Def Con from 1.44209e-010 to 1.44483e-010
Heightened Def Con from 1.44544e-010 to 1.44548e-010
Heightened Def Con from 1.44549e-010 to 1.44553e-010
Heightened Def Con from 1.4457e-010 to 1.46527e-010
Heightened Def Con from 1.46543e-010 to 1.46551e-010
Heightened Def Con from 1.46551e-010 +to 1.46582e-010
Heightened Def Con from 1.46582e-010 to 1.46856e-010
Heightened Def Con from 1.46858e-010 to 1.46892e-010
Heightened Def Con from 1.46916e-010 to 1.46923e-010
Heightened Def Con from 1.46947e-010 to 1.48904e-010
Heightened Def Con from 1.49012e-010 to 1.49046e-010
Heightened Def Con from 1.49099e-010 to 1.64724e-010
Heightened Def Con from 1.64724e-010 to 1.64736e-010
Heightened Def Con from 1.64739e-010 +to 1.64777e-010
Heightened Def Con from 1.64936e-010 to 1.6494e-010
Heightened Def Con from 1.6494e-010 +to 1.64944e-010
Heightened Def Con from 1.64944e-010 to 1.64979e-010
Heightened Def Con from 1.64979e-010 +to 1.64987e-010
Heightened Def Con from 1.64988e-010 to 1.65049e-010
Heightened Def Con from 1.65049e-010 to 1.65061e-010
Heightened Def Con from 1.65061e-010 to 1.65091e-010
Heightened Def Con from 1.65091e-010 to 1.65152e-010
Heightened Def Con from 1.65153e-010 to 1.65165e-010
Heightened Def Con from 1.65165e-010 to 1.65165e-010
Heightened Def Con from 1.65165e-010 to 1.65177e-010
Heightened Def Con from 1.65185e-010 to 1.65219e-010
Heightened Def Con from 1.65243e-010 to 1.65247e-010
Heightened Def Con from 1.65247e-010 to 1.65247e-010
Heightened Def Con from 1.65247e-010 to 1.65255e-010
Heightened Def Con from 1.65308e-010 +to 1.65346e-010
Heightened Def Con from 1.65354e-010 +to 1.65366e-010
Heightened Def Con from 1.65366e-010 to 1.65397e-010
Heightened Def Con from 1.65398e-010 to 1.65459e-010
Heightened Def Con from 1.65483e-010 to 1.65483e-010
Heightened Def Con from 1.65483e-010 to 1.65491e-010
Heightened Def Con from 1.65527e-010 to 1.65535e-010
Heightened Def Con from 1.65679e-010 to 1.65683e-010
Heightened Def Con from 1.65683e-010 to 1.65713e-010
Heightened Def Con from 1.65713e-010 to 1.65714e-010
Heightened Def Con from 1.65714e-010 to 1.65722e-010
Heightened Def Con from 1.65744e-010 to 1.65752e-010
Heightened Def Con from 1.65775e-010 to 1.65775e-010
Heightened Def Con from 1.65775e-010 to 1.65779e-010
Heightened Def Con from 1.65779e-010 to 1.65779e-010
Heightened Def Con from 1.6578e-010 to 1.65811e-010
Heightened Def Con from 1.65811e-010 to 1.66086e-010
Heightened Def Con from 1.66201e-010 to 1.66201e-010
Heightened Def Con from 1.66201e-010 to 1.66262e-010
Heightened Def Con from 1.66262e-010 to 1.66296e-010
Heightened Def Con from 1.66353e-010 to 1.6636e-010
Heightened Def Con from 1.66361e-010 to 1.66369e-010
Heightened Def Con from 1.66376e-010 to 1.6638e-010
Heightened Def Con from 1.6639e-010 to 1.66398e-010
Heightened Def Con from 1.66407e-010 to 1.66411e-010
Heightened Def Con from 1.66411e-010 to 1.66445e-010
Heightened Def Con from 1.66446e-010 to 1.66453e-010
Heightened Def Con from 1.66806e-010 to 1.6708e-010
Heightened Def Con from 1.6708e-010 to 1.67111e-010
Heightened Def Con from 1.67112e-010 to 1.67112e-010
Heightened Def Con from 1.67112e-010 +to 1.67124e-010
Heightened Def Con from 1.67257e-010 to 1.67265e-010
Heightened Def Con from 1.67266e-010 to 1.67271e-010
Heightened Def Con from 1.67271e-010 to 1.67274e-010
Heightened Def Con from 1.67274e-010 to 1.67282e-010
Heightened Def Con from 1.67355e-010 to 1.67359e-010
Heightened Def Con from 1.67362e-010 to 1.67366e-010
Heightened Def Con from 1.67366e-010 to 1.67396e-010
Heightened Def Con from 1.67396e-010 to 1.67427e-010
Heightened Def Con from 1.67435e-010 to 1.69419e-010
Heightened Def Con from 1.6948e-010 to 1.6948e-010
Heightened Def Con from 1.6948e-010 +to 1.69541e-010
Heightened Def Con from 1.69581e-010 to 1.69588e-010
Heightened Def Con from 1.69644e-010 +to 1.69652e-010
Heightened Def Con from 1.69655e-010 to 1.69716e-010
Heightened Def Con from 1.69716e-010 to 1.69717e-010
Heightened Def Con from 1.69717e-010 to 1.69729e-010
Heightened Def Con from 1.69807e-010 to 1.69818e-010
Heightened Def Con from 1.69858e-010 +to 1.69923e-010
Heightened Def Con from 1.70117e-010 to 1.70121e-010
Heightened Def Con from 1.70121e-010 to 1.70125e-010
Heightened Def Con from 1.70132e-010 to 1.70136e-010
Heightened Def Con from 1.70137e-010 to 1.70171e-010
Heightened Def Con from 1.70175e-010 to 1.70183e-010
Heightened Def Con from 1.70183e-010 to 1.70217e-010
Heightened Def Con from 1.70254e-010 to 1.70288e-010
Heightened Def Con from 1.70408e-010 +to 1.70438e-010
Heightened Def Con from 1.70449e-010 +to 1.70457e-010
Heightened Def Con from 1.7049e-010 to 1.70494e-010
Heightened Def Con from 1.70519e-010 to 1.70526e-010
Heightened Def Con from 1.70552e-010 to 1.70556e-010
Heightened Def Con from 1.70597e-010 to 1.70842e-010
Heightened Def Con from 1.70942e-010 to 1.70949e-010
Heightened Def Con from 1.7095e-010 +to 1.70984e-010
Heightened Def Con from 1.70984e-010 to 1.70988e-010
Heightened Def Con from 1.70988e-010 to 1.70996e-010
Heightened Def Con from 1.71019e-010 to 1.71022e-010
Heightened Def Con from 1.71031e-010 to 1.71032e-010
Heightened Def Con from 1.71033e-010 to 1.73017e-010
Heightened Def Con from 1.73019e-010 to 1.7303e-010
Heightened Def Con from 1.73083e-010 +to 1.73091e-010
Heightened Def Con from 1.73091e-010 to 1.73122e-010
Heightened Def Con from 1.73122e-010 +to 1.73183e-010
Heightened Def Con from 1.73185e-010 to 1.73433e-010
Heightened Def Con from 1.73493e-010 to 1.73741e-010
Heightened Def Con from 1.73815e-010 to 1.7409e-010
Heightened Def Con from 1.7409e-010 to 1.74338e-010
Heightened Def Con from 1.74346e-010 to 1.74411e-010
Heightened Def Con from 1.74411e-010 to 1.74414e-010
Heightened Def Con from 1.74414e-010 to 1.74415e-010
Heightened Def Con from 1.74415e-010 to 1.74418e-010
Heightened Def Con from 1.74495e-010 to 1.74503e-010
Heightened Def Con from 1.74526e-010 to 1.74533e-010
Heightened Def Con from 1.74539e-010 +to 1.90168e-010
Heightened Def Con from 1.9017e-010 to 1.90171e-010
Heightened Def Con from 1.90171e-010 to 1.90236e-010
Heightened Def Con from 1.90261e-010 to 1.90261e-010
Heightened Def Con from 1.90262e-010 to 1.90296e-010
Heightened Def Con from 1.90535e-010 to 1.90535e-010
Heightened Def Con from 1.90535e-010 to 1.90596e-010
Heightened Def Con from 1.90597e-010 to 1.90598e-010
Heightened Def Con from 1.90667e-010 to 1.90671e-010
Heightened Def Con from 1.90671e-010 to 1.90706e-010
Heightened Def Con from 1.90713e-010 to 1.90778e-010
Heightened Def Con from 1.90837e-010 to 1.90871e-010
Heightened Def Con from 1.90879e-010 +to 1.90883e-010
Heightened Def Con from 1.90883e-010 to 1.90895e-010
Heightened Def Con from 1.91029e-010 to 1.9103e-010
Heightened Def Con from 1.91037e-010 +to 1.91037e-010
Heightened Def Con from 1.91038e-010 to 1.91073e-010
Heightened Def Con from 1.91165e-010 +to 1.91169e-010
Heightened Def Con from 1.91169e-010 to 1.9117e-010
Heightened Def Con from 1.9117e-010 to 1.91177e-010
Heightened Def Con from 1.91177e-010 to 1.91208e-010
Heightened Def Con from 1.9121e-010 to 1.9121e-010
Heightened Def Con from 1.9121e-010 to 1.91271e-010
Heightened Def Con from 1.91271e-010 to 1.91271e-010
Heightened Def Con from 1.91271e-010 to 1.91272e-010
Heightened Def Con from 1.91272e-010 to 1.91283e-010
Heightened Def Con from 1.91294e-010 +to 1.91295e-010
Heightened Def Con from 1.91295e-010 +to 1.91306e-010
Heightened Def Con from 1.91345e-010 to 1.91345e-010
Heightened Def Con from 1.91345e-010 +to 1.91353e-010
Heightened Def Con from 1.91401e-010 to 1.91406e-010
Heightened Def Con from 1.91406e-010 to 1.91413e-010
Heightened Def Con from 1.91413e-010 to 1.91444e-010
Heightened Def Con from 1.91444e-010 to 1.91478e-010
Heightened Def Con from 1.91479e-010 to 1.91482e-010
Heightened Def Con from 1.91482e-010 to 1.91513e-010
Heightened Def Con from 1.91513e-010 to 1.91521e-010
Heightened Def Con from 1.91521e-010 to 1.91552e-010
Heightened Def Con from 1.91553e-010 to 1.91553e-010
Heightened Def Con from 1.91553e-010 to 1.91553e-010
Heightened Def Con from 1.91553e-010 to 1.91588e-010
Heightened Def Con from 1.91677e-010 to 1.91681e-010
Heightened Def Con from 1.91693e-010 to 1.91723e-010
Heightened Def Con from 1.91723e-010 to 1.91754e-010
Heightened Def Con from 1.91754e-010 to 1.91789e-010
Heightened Def Con from 1.91842e-010 to 1.91845e-010
Heightened Def Con from 1.91854e-010 +to 1.91915e-010
Heightened Def Con from 1.91917e-010 to 1.91921e-010
Heightened Def Con from 1.91921e-010 to 1.91982e-010
Heightened Def Con from 1.92105e-010 to 1.92136e-010
Heightened Def Con from 1.92153e-010 to 1.92214e-010
Heightened Def Con from 1.92215e-010 to 1.92219e-010
Heightened Def Con from 1.92219e-010 to 1.9228e-010
Heightened Def Con from 1.92308e-010 to 1.92369e-010
Heightened Def Con from 1.92432e-010 to 1.92435e-010
Heightened Def Con from 1.92477e-010 to 1.92511e-010
Heightened Def Con from 1.92579e-010 to 1.9264e-010
Heightened Def Con from 1.9267e-010 to 1.92731e-010
Heightened Def Con from 1.92739e-010 +to 1.92742e-010
Heightened Def Con from 1.92742e-010 to 1.9275e-010
Heightened Def Con from 1.92758e-010 to 1.92819e-010
Heightened Def Con from 1.92861e-010 to 1.92865e-010
Heightened Def Con from 1.92865e-010 +to 1.92868e-010
Heightened Def Con from 1.9287e-010 to 1.92931e-010
Heightened Def Con from 1.92992e-010 to 1.92996e-010
Heightened Def Con from 1.93014e-010 to 1.93075e-010
Heightened Def Con from 1.9313e-010 to 1.93134e-010
Heightened Def Con from 1.93134e-010 to 1.93138e-010
Heightened Def Con from 1.93165e-010 +to 1.93439e-010
Heightened Def Con from 1.93502e-010 to 1.93503e-010
Heightened Def Con from 1.93504e-010 to 1.93534e-010
Heightened Def Con from 1.93548e-010 to 1.93551e-010
Heightened Def Con from 1.93552e-010 to 1.93826e-010
Heightened Def Con from 1.93827e-010 to 1.93828e-010
Heightened Def Con from 1.93828e-010 to 1.93828e-010
Heightened Def Con from 1.93828e-010 to 1.93828e-010
Heightened Def Con from 1.93828e-010 to 1.93828e-010
Heightened Def Con from 1.93828e-010 to 1.93836e-010
Heightened Def Con from 1.93836e-010 to 1.93897e-010
Heightened Def Con from 1.93897e-010 +to 1.93905e-010
Heightened Def Con from 1.93956e-010 +to 1.93964e-010
Heightened Def Con from 1.93972e-010 to 1.93972e-010
Heightened Def Con from 1.93972e-010 to 1.94033e-010
Heightened Def Con from 1.94115e-010 +to 1.94146e-010
Heightened Def Con from 1.94259e-010 to 1.9432e-010
Heightened Def Con from 1.94321e-010 to 1.94355e-010
Heightened Def Con from 1.9438e-010 +to 1.9441e-010
Heightened Def Con from 1.9441e-010 to 1.9441e-010
Heightened Def Con from 1.9441e-010 +++to 3.19414e-010
Heightened Def Con from 3.19422e-010 to 3.21619e-010
Heightened Def Con from 3.22108e-010 to 3.22383e-010
Heightened Def Con from 3.22657e-010 to 3.22691e-010
Heightened Def Con from 3.22691e-010 to 3.22939e-010
Heightened Def Con from 3.22974e-010 to 3.23008e-010
Heightened Def Con from 3.23336e-010 to 3.23366e-010
Heightened Def Con from 3.23367e-010 to 3.23374e-010
Heightened Def Con from 3.23539e-010 to 3.236e-010
Heightened Def Con from 3.23602e-010 to 3.23637e-010
Heightened Def Con from 3.2378e-010 to 3.23841e-010
Heightened Def Con from 3.24049e-010 to 3.39674e-010
Heightened Def Con from 3.39674e-010 to 3.39709e-010
Heightened Def Con from 3.39735e-010 to 3.39739e-010
Heightened Def Con from 3.39739e-010 to 3.39739e-010
Heightened Def Con from 3.39739e-010 to 3.39804e-010
Heightened Def Con from 3.39959e-010 to 3.39966e-010
Heightened Def Con from 3.39969e-010 to 3.4003e-010
Heightened Def Con from 3.40031e-010 to 3.40092e-010
Heightened Def Con from 3.40108e-010 to 3.40116e-010
Heightened Def Con from 3.40116e-010 to 3.40151e-010
Heightened Def Con from 3.40151e-010 to 3.40151e-010
Heightened Def Con from 3.40153e-010 to 3.40168e-010
Heightened Def Con from 3.40231e-010 to 3.40242e-010
Heightened Def Con from 3.40296e-010 to 3.4033e-010
Heightened Def Con from 3.40383e-010 +to 3.40414e-010
Heightened Def Con from 3.40415e-010 to 3.4045e-010
Heightened Def Con from 3.40631e-010 to 3.40696e-010
Heightened Def Con from 3.40705e-010 to 3.40713e-010
Heightened Def Con from 3.40713e-010 to 3.40748e-010
Heightened Def Con from 3.40748e-010 to 3.40755e-010
Heightened Def Con from 3.40755e-010 to 3.40763e-010
Heightened Def Con from 3.40771e-010 ++to 3.56404e-010
Heightened Def Con from 3.56539e-010 to 3.56787e-010
Heightened Def Con from 3.56795e-010 to 3.56803e-010
Heightened Def Con from 3.56808e-010 to 3.5682e-010
Heightened Def Con from 3.5682e-010 to 3.56885e-010
Heightened Def Con from 3.56885e-010 to 3.56896e-010
Heightened Def Con from 3.56904e-010 to 3.56915e-010
Heightened Def Con from 3.5731e-010 to 3.57311e-010
Heightened Def Con from 3.57311e-010 to 3.57585e-010
Heightened Def Con from 3.57596e-010 to 3.57657e-010
Heightened Def Con from 3.57659e-010 to 3.5772e-010
Heightened Def Con from 3.57829e-010 to 3.57837e-010
Heightened Def Con from 3.57837e-010 to 3.57845e-010
Heightened Def Con from 3.57867e-010 to 3.57901e-010
Heightened Def Con from 3.58242e-010 +to 3.58245e-010
Heightened Def Con from 3.58249e-010 to 3.5828e-010
Heightened Def Con from 3.5828e-010 to 3.58772e-010
Heightened Def Con from 3.58989e-010 to 3.5902e-010
Heightened Def Con from 3.59062e-010 to 3.59096e-010
Heightened Def Con from 3.59226e-010 to 3.59287e-010
Heightened Def Con from 3.59412e-010 to 3.59446e-010
Heightened Def Con from 3.59446e-010 to 3.5948e-010
Heightened Def Con from 3.59497e-010 to 3.59497e-010
Heightened Def Con from 3.59497e-010 to 3.59508e-010
Heightened Def Con from 3.59547e-010 to 3.59581e-010
Heightened Def Con from 3.596e-010 to 3.59607e-010
Heightened Def Con from 3.59618e-010 to 3.59652e-010
Heightened Def Con from 3.5966e-010 to 3.59721e-010
Heightened Def Con from 3.59793e-010 to 3.598e-010
Heightened Def Con from 3.598e-010 to 3.59808e-010
Heightened Def Con from 3.59808e-010 +to 3.59819e-010
Heightened Def Con from 3.59829e-010 to 3.59837e-010
Heightened Def Con from 3.59843e-010 to 3.59873e-010
Heightened Def Con from 3.59873e-010 to 3.59907e-010
Heightened Def Con from 3.59915e-010 to 3.59923e-010
Heightened Def Con from 3.59924e-010 to 3.61877e-010
Heightened Def Con from 3.61877e-010 +to 3.61885e-010
Heightened Def Con from 3.61886e-010 to 3.61897e-010
Heightened Def Con from 3.61906e-010 to 3.61914e-010
Heightened Def Con from 3.61937e-010 to 3.62185e-010
Heightened Def Con from 3.6235e-010 to 3.62384e-010
Heightened Def Con from 3.62392e-010 to 3.624e-010
Heightened Def Con from 3.62407e-010 to 3.62411e-010
Heightened Def Con from 3.6242e-010 to 3.62665e-010
Heightened Def Con from 3.62666e-010 to 3.62669e-010
Heightened Def Con from 3.6267e-010 to 3.62677e-010
Heightened Def Con from 3.62805e-010 to 3.62805e-010
Heightened Def Con from 3.62805e-010 to 3.6281e-010
Heightened Def Con from 3.6281e-010 to 3.62844e-010
Heightened Def Con from 3.63003e-010 to 3.63011e-010
Heightened Def Con from 3.63078e-010 to 3.63082e-010
Heightened Def Con from 3.63082e-010 +to 3.63085e-010
Heightened Def Con from 3.63092e-010 to 3.63122e-010
Heightened Def Con from 3.63122e-010 to 3.63134e-010
Heightened Def Con from 3.63157e-010 to 3.6316e-010
Heightened Def Con from 3.63163e-010 to 3.65117e-010
Heightened Def Con from 3.65119e-010 to 3.65119e-010
Heightened Def Con from 3.6512e-010 to 3.65185e-010
Heightened Def Con from 3.65293e-010 to 3.653e-010
Heightened Def Con from 3.65317e-010 to 3.65351e-010
Heightened Def Con from 3.65405e-010 to 3.65408e-010
Heightened Def Con from 3.65419e-010 to 3.65428e-010
Heightened Def Con from 3.65428e-010 to 3.65432e-010
Heightened Def Con from 3.65432e-010 to 3.65432e-010
Heightened Def Con from 3.65432e-010 to 3.65436e-010
Heightened Def Con from 3.65436e-010 to 3.65437e-010
Heightened Def Con from 3.65437e-010 to 3.65501e-010
Heightened Def Con from 3.65512e-010 to 3.6552e-010
Heightened Def Con from 3.65541e-010 to 3.67525e-010
Heightened Def Con from 3.67525e-010 to 3.67529e-010
Heightened Def Con from 3.67529e-010 to 3.67533e-010
Heightened Def Con from 3.67534e-010 to 3.67534e-010
Heightened Def Con from 3.67534e-010 to 3.67545e-010
Heightened Def Con from 3.67545e-010 +to 3.67561e-010
Heightened Def Con from 3.6758e-010 to 3.67828e-010
Heightened Def Con from 3.67828e-010 to 3.67832e-010
Heightened Def Con from 3.67832e-010 to 3.67843e-010
Heightened Def Con from 3.67851e-010 to 3.67855e-010
Heightened Def Con from 3.67855e-010 +to 3.67866e-010
Heightened Def Con from 3.67932e-010 to 3.67936e-010
Heightened Def Con from 3.67936e-010 to 3.67943e-010
Heightened Def Con from 3.67944e-010 to 3.67952e-010
Heightened Def Con from 3.67952e-010 to 3.67959e-010
Heightened Def Con from 3.67988e-010 to 3.68022e-010
Heightened Def Con from 3.68063e-010 to 3.68066e-010
Heightened Def Con from 3.68074e-010 to 3.68319e-010
Heightened Def Con from 3.68322e-010 to 3.68329e-010
Heightened Def Con from 3.68331e-010 to 3.68392e-010
Heightened Def Con from 3.68471e-010 to 3.68505e-010
Heightened Def Con from 3.68513e-010 to 3.68547e-010
Heightened Def Con from 3.68567e-010 to 3.68571e-010
Heightened Def Con from 3.68581e-010 to 3.68585e-010
Heightened Def Con from 3.68585e-010 to 3.68833e-010
Heightened Def Con from 3.68846e-010 to 3.6885e-010
Heightened Def Con from 3.68851e-010 to 3.69125e-010
Heightened Def Con from 3.69126e-010 to 3.69126e-010
Heightened Def Con from 3.69126e-010 to 3.69156e-010
Heightened Def Con from 3.69156e-010 to 3.69191e-010
Heightened Def Con from 3.69209e-010 to 3.6921e-010
Heightened Def Con from 3.6921e-010 to 4.94214e-010
Heightened Def Con from 4.94214e-010 to 4.94462e-010
Heightened Def Con from 4.94462e-010 to 4.94462e-010
Heightened Def Con from 4.94462e-010 +to 4.94527e-010
Heightened Def Con from 4.9453e-010 to 4.94775e-010
Heightened Def Con from 4.94775e-010 to 4.94836e-010
Heightened Def Con from 4.94865e-010 to 4.94873e-010
Heightened Def Con from 4.94873e-010 +to 4.94938e-010
Heightened Def Con from 4.94938e-010 +to 4.94946e-010
Heightened Def Con from 4.94947e-010 to 4.95221e-010
Heightened Def Con from 4.95267e-010 to 4.95267e-010
Heightened Def Con from 4.95267e-010 to 4.95267e-010
Heightened Def Con from 4.95267e-010 to 4.95267e-010
Heightened Def Con from 4.95267e-010 +to 4.95297e-010
Heightened Def Con from 4.95316e-010 to 4.9535e-010
Heightened Def Con from 4.95363e-010 to 4.95368e-010
Heightened Def Con from 4.95369e-010 to 4.9543e-010
Heightened Def Con from 4.9543e-010 to 4.95464e-010
Heightened Def Con from 4.95472e-010 to 4.95502e-010
Heightened Def Con from 4.95502e-010 to 4.95536e-010
Heightened Def Con from 4.95546e-010 to 4.9558e-010
Heightened Def Con from 4.95626e-010 to 4.95627e-010
Heightened Def Con from 4.95627e-010 to 4.95639e-010
Heightened Def Con from 4.95711e-010 to 4.95711e-010
Heightened Def Con from 4.95711e-010 to 4.95719e-010
Heightened Def Con from 4.95719e-010 to 4.95723e-010
Heightened Def Con from 4.95723e-010 to 4.95724e-010
Heightened Def Con from 4.95724e-010 to 4.95732e-010
Heightened Def Con from 4.95746e-010 to 4.9575e-010
Heightened Def Con from 4.9575e-010 +to 4.95754e-010
Heightened Def Con from 4.95754e-010 to 4.95761e-010
Heightened Def Con from 4.95922e-010 to 4.9593e-010
Heightened Def Con from 4.9593e-010 to 4.95937e-010
Heightened Def Con from 4.95938e-010 to 4.95973e-010
Heightened Def Con from 4.95995e-010 to 4.96003e-010
Heightened Def Con from 4.96003e-010 to 4.96034e-010
Heightened Def Con from 4.96034e-010 to 4.96095e-010
Heightened Def Con from 4.96095e-010 to 4.96099e-010
Heightened Def Con from 4.96156e-010 to 4.96163e-010
Heightened Def Con from 4.96164e-010 to 4.96198e-010
Heightened Def Con from 4.962e-010 to 4.96204e-010
Heightened Def Con from 4.96204e-010 to 4.96205e-010
Heightened Def Con from 4.96205e-010 to 4.96212e-010
Heightened Def Con from 4.96212e-010 to 4.96247e-010
Heightened Def Con from 4.9627e-010 to 4.98227e-010
Heightened Def Con from 4.98341e-010 to 4.98352e-010
Heightened Def Con from 4.98375e-010 to 4.98383e-010
Heightened Def Con from 4.98383e-010 to 4.98387e-010
Heightened Def Con from 4.98387e-010 to 4.98395e-010
Heightened Def Con from 4.98396e-010 to 4.98399e-010
Heightened Def Con from 4.98399e-010 to 4.9843e-010
Heightened Def Con from 4.98431e-010 to 4.98679e-010
Heightened Def Con from 4.98743e-010 to 4.98804e-010
Heightened Def Con from 4.98854e-010 to 4.98858e-010
Heightened Def Con from 4.98858e-010 to 4.98862e-010
Heightened Def Con from 4.98862e-010 to 4.9911e-010
Heightened Def Con from 4.99224e-010 to 4.99285e-010
Heightened Def Con from 4.99285e-010 to 4.99533e-010
Heightened Def Con from 4.99556e-010 to 4.99567e-010
Heightened Def Con from 4.99631e-010 to 4.99639e-010
Heightened Def Con from 4.99639e-010 to 4.99914e-010
Heightened Def Con from 4.99919e-010 to 4.99953e-010
Heightened Def Con from 4.99982e-010 to 4.99994e-010
Heightened Def Con from 5.00038e-010 +to 5.00046e-010
Heightened Def Con from 5.00046e-010 to 5.00047e-010
Heightened Def Con from 5.00047e-010 to 5.00055e-010
Heightened Def Con from 5.00075e-010 to 5.00079e-010
Heightened Def Con from 5.00094e-010 to 5.00155e-010
Heightened Def Con from 5.00157e-010 to 5.00165e-010
Heightened Def Con from 5.00166e-010 to 5.00166e-010
Heightened Def Con from 5.00176e-010 to 5.0018e-010
Heightened Def Con from 5.00252e-010 to 5.00259e-010
Heightened Def Con from 5.0026e-010 to 5.00268e-010
Heightened Def Con from 5.00331e-010 to 5.00335e-010
Heightened Def Con from 5.00335e-010 to 5.00583e-010
Heightened Def Con from 5.00591e-010 to 5.00621e-010
Heightened Def Con from 5.00626e-010 to 5.00637e-010
Heightened Def Con from 5.00638e-010 to 5.00673e-010
Heightened Def Con from 5.00734e-010 to 5.00741e-010
Heightened Def Con from 5.00741e-010 to 5.00802e-010
Heightened Def Con from 5.00802e-010 to 5.00803e-010
Heightened Def Con from 5.00805e-010 to 5.00805e-010
Heightened Def Con from 5.00805e-010 to 5.00813e-010
Heightened Def Con from 5.00872e-010 to 5.16501e-010
Heightened Def Con from 5.16509e-010 +to 5.16757e-010
Heightened Def Con from 5.16759e-010 +to 5.16772e-010
Heightened Def Con from 5.16779e-010 to 5.16875e-010
Heightened Def Con from 5.16875e-010 to 5.16883e-010
Heightened Def Con from 5.16883e-010 +to 5.16922e-010
Heightened Def Con from 5.16923e-010 to 5.17014e-010
Heightened Def Con from 5.17015e-010 to 5.17027e-010
Heightened Def Con from 5.17036e-010 to 5.1704e-010
Heightened Def Con from 5.1704e-010 to 5.18994e-010
Heightened Def Con from 5.18994e-010 +to 5.19001e-010
Heightened Def Con from 5.19002e-010 to 5.19013e-010
Heightened Def Con from 5.19021e-010 to 5.19029e-010
Heightened Def Con from 5.19029e-010 to 5.1909e-010
Heightened Def Con from 5.19091e-010 to 5.19092e-010
Heightened Def Con from 5.19202e-010 to 5.19206e-010
Heightened Def Con from 5.19214e-010 +to 6.44218e-010
Heightened Def Con from 6.44229e-010 to 6.44229e-010
Heightened Def Con from 6.44229e-010 to 6.44233e-010
Heightened Def Con from 6.44234e-010 to 6.44509e-010
Heightened Def Con from 6.44512e-010 to 6.44573e-010
Heightened Def Con from 6.44575e-010 to 6.44636e-010
Heightened Def Con from 6.44957e-010 to 6.45205e-010
Heightened Def Con from 6.4534e-010 +to 6.45404e-010
Heightened Def Con from 6.45404e-010 to 6.45496e-010
Heightened Def Con from 6.45558e-010 to 6.45619e-010
Heightened Def Con from 6.45647e-010 +to 6.45708e-010
Heightened Def Con from 6.45709e-010 to 6.45721e-010
Heightened Def Con from 6.45857e-010 +to 6.45919e-010
Heightened Def Con from 6.45934e-010 to 6.45938e-010
Heightened Def Con from 6.45938e-010 to 6.45942e-010
Heightened Def Con from 6.45942e-010 to 6.46003e-010
Heightened Def Con from 6.46024e-010 to 6.46028e-010
Heightened Def Con from 6.46028e-010 +to 6.46277e-010
Heightened Def Con from 6.46285e-010 to 6.46319e-010
Heightened Def Con from 6.4633e-010 to 6.46331e-010
Heightened Def Con from 6.46334e-010 to 6.46368e-010
Heightened Def Con from 6.46518e-010 to 6.46523e-010
Heightened Def Con from 6.46523e-010 +to 6.46584e-010
Heightened Def Con from 6.46669e-010 to 6.4667e-010
Heightened Def Con from 6.46671e-010 to 6.46702e-010
Heightened Def Con from 6.46703e-010 to 6.46764e-010
Heightened Def Con from 6.46889e-010 to 6.4695e-010
Heightened Def Con from 6.47009e-010 to 7.72039e-010
Heightened Def Con from 7.72069e-010 to 7.7207e-010
Heightened Def Con from 7.7207e-010 to 7.72071e-010
Heightened Def Con from 7.72071e-010 to 7.72071e-010
Heightened Def Con from 7.72071e-010 to 7.72105e-010
Heightened Def Con from 7.72217e-010 to 7.72251e-010
Heightened Def Con from 7.72266e-010 to 7.7227e-010
Heightened Def Con from 7.7227e-010 to 7.72331e-010
Heightened Def Con from 7.72336e-010 to 7.72397e-010
Heightened Def Con from 7.72397e-010 to 7.72401e-010
Heightened Def Con from 7.72401e-010 to 7.72401e-010
Heightened Def Con from 7.72401e-010 to 7.72401e-010
Heightened Def Con from 7.72401e-010 to 7.72401e-010
Heightened Def Con from 7.72401e-010 to 7.72409e-010
Heightened Def Con from 7.72446e-010 to 7.72507e-010
Heightened Def Con from 7.72507e-010 to 8.97507e-010
Heightened Def Con from 8.97508e-010 to 8.97508e-010
Heightened Def Con from 8.97508e-010 to 8.97542e-010
Heightened Def Con from 8.97561e-010 to 8.97565e-010
Heightened Def Con from 8.97566e-010 to 8.97569e-010
Heightened Def Con from 8.97569e-010 to 8.97634e-010
Heightened Def Con from 8.97634e-010 to 8.97669e-010
Heightened Def Con from 8.97689e-010 to 8.9769e-010
Heightened Def Con from 8.97691e-010 to 8.97752e-010
Heightened Def Con from 8.97809e-010 to 8.9787e-010
Heightened Def Con from 8.97876e-010 to 8.97911e-010
Heightened Def Con from 8.97912e-010 to 8.97913e-010
Heightened Def Con from 8.97914e-010 to 8.97914e-010
Heightened Def Con from 8.97914e-010 to 8.97975e-010
Heightened Def Con from 8.97975e-010 to 8.98009e-010
Heightened Def Con from 8.98146e-010 to 8.98146e-010
Heightened Def Con from 8.98152e-010 to 8.984e-010
Heightened Def Con from 8.9859e-010 to 8.98594e-010
Heightened Def Con from 8.98594e-010 +to 8.98606e-010
Heightened Def Con from 8.98606e-010 to 8.9861e-010
Heightened Def Con from 8.9861e-010 +to 8.98625e-010
Heightened Def Con from 8.98625e-010 to 8.98634e-010
Heightened Def Con from 8.9864e-010 to 8.98675e-010
Heightened Def Con from 8.98682e-010 to 8.98957e-010
Heightened Def Con from 8.98961e-010 to 8.98996e-010
Heightened Def Con from 8.99137e-010 +to 8.99198e-010
Heightened Def Con from 8.99209e-010 +to 8.99209e-010
Heightened Def Con from 8.99307e-010 to 8.99308e-010
Heightened Def Con from 8.99339e-010 to 8.99374e-010
Heightened Def Con from 8.99432e-010 to 8.99463e-010
Heightened Def Con from 8.99464e-010 to 8.99495e-010
Heightened Def Con from 8.99521e-010 to 8.99551e-010
Heightened Def Con from 8.99551e-010 +to 8.99582e-010
Heightened Def Con from 8.99585e-010 to 8.99586e-010
Heightened Def Con from 8.99586e-010 to 8.99587e-010
Heightened Def Con from 8.9968e-010 to 8.99741e-010
Heightened Def Con from 8.99742e-010 to 8.99742e-010
Heightened Def Con from 8.99742e-010 to 8.99749e-010
Heightened Def Con from 8.99752e-010 to 8.9976e-010
Heightened Def Con from 8.99853e-010 to 8.99861e-010
Heightened Def Con from 9.00058e-010 to 9.00306e-010
Heightened Def Con from 9.0034e-010 +to 9.00402e-010
Heightened Def Con from 9.00445e-010 to 9.00475e-010
Heightened Def Con from 9.00475e-010 to 9.0075e-010
Heightened Def Con from 9.0075e-010 to 9.01242e-010
Heightened Def Con from 9.0125e-010 to 9.01255e-010
Heightened Def Con from 9.01255e-010 to 9.01285e-010
Heightened Def Con from 9.01285e-010 to 9.01287e-010
Heightened Def Con from 9.01287e-010 to 9.01288e-010
Heightened Def Con from 9.01289e-010 to 9.0132e-010
Heightened Def Con from 9.0132e-010 to 9.0132e-010
Heightened Def Con from 9.0132e-010 to 9.0132e-010
Heightened Def Con from 9.0132e-010 to 9.01351e-010
Heightened Def Con from 9.01351e-010 to 9.01351e-010
Heightened Def Con from 9.01351e-010 to 9.01363e-010
Heightened Def Con from 9.01393e-010 +to 9.01401e-010
Heightened Def Con from 9.01401e-010 to 9.01404e-010
Heightened Def Con from 9.01404e-010 to 9.01465e-010
Heightened Def Con from 9.01668e-010 to 9.01675e-010
Heightened Def Con from 9.01689e-010 +to 9.01724e-010
Heightened Def Con from 9.01741e-010 to 9.01802e-010
Heightened Def Con from 9.01803e-010 to 1.0268e-009
Heightened Def Con from 1.02697e-009 to 1.02698e-009
Heightened Def Con from 1.02698e-009 to 1.02701e-009
Heightened Def Con from 1.02701e-009 to 1.02702e-009
Heightened Def Con from 1.02702e-009 +to 1.02727e-009
Heightened Def Con from 1.02727e-009 to 1.02754e-009
Heightened Def Con from 1.02754e-009 to 1.02754e-009
Heightened Def Con from 1.02754e-009 to 1.02758e-009
Heightened Def Con from 1.02758e-009 to 1.02761e-009
Heightened Def Con from 1.02762e-009 to 1.02763e-009
Heightened Def Con from 1.02764e-009 +to 2.02764e-009
Heightened Def Con from 2.02764e-009 to 2.02765e-009
Heightened Def Con from 2.02765e-009 to 2.02774e-009
Heightened Def Con from 2.02781e-009 to 2.02791e-009
Heightened Def Con from 2.02799e-009 to 2.02995e-009
Heightened Def Con from 2.02995e-009 +to 2.02999e-009
Heightened Def Con from 2.03e-009 to 2.03001e-009
Heightened Def Con from 2.03002e-009 +to 2.03007e-009
Heightened Def Con from 2.03022e-009 to 2.03028e-009
Heightened Def Con from 2.03028e-009 to 2.03037e-009
Heightened Def Con from 2.03055e-009 to 2.03064e-009
Heightened Def Con from 2.03065e-009 +to 2.03071e-009
Heightened Def Con from 2.03073e-009 to 2.03074e-009
Heightened Def Con from 2.03075e-009 to 2.03076e-009
Heightened Def Con from 2.03077e-009 +to 2.0308e-009
Heightened Def Con from 2.03111e-009 to 2.03139e-009
Heightened Def Con from 2.03145e-009 to 2.03151e-009
Heightened Def Con from 2.03151e-009 to 2.03176e-009
Heightened Def Con from 2.03177e-009 +to 2.03178e-009
Heightened Def Con from 2.03182e-009 to 2.03189e-009
Heightened Def Con from 2.03198e-009 to 2.03202e-009
Heightened Def Con from 2.03202e-009 to 2.03202e-009
Heightened Def Con from 2.03215e-009 to 2.03222e-009
Heightened Def Con from 2.03223e-009 to 2.03227e-009
Heightened Def Con from 2.03237e-009 to 2.03243e-009
Heightened Def Con from 2.03243e-009 to 2.03244e-009
Heightened Def Con from 2.03248e-009 to 2.03249e-009
Heightened Def Con from 2.03251e-009 to 2.03255e-009
Heightened Def Con from 2.03255e-009 to 2.03261e-009
Heightened Def Con from 2.03264e-009 to 2.03265e-009
Heightened Def Con from 2.03265e-009 to 2.03271e-009
Heightened Def Con from 2.03291e-009 to 2.03292e-009
Heightened Def Con from 2.03292e-009 +to 2.03295e-009
Heightened Def Con from 2.03295e-009 to 2.03299e-009
Heightened Def Con from 2.033e-009 ++to 2.03303e-009
Heightened Def Con from 2.03305e-009 to 2.03308e-009
Heightened Def Con from 2.03315e-009 to 2.03318e-009
Heightened Def Con from 2.03319e-009 to 2.03325e-009
Heightened Def Con from 2.03326e-009 to 2.0333e-009
Heightened Def Con from 2.0333e-009 +to 2.03336e-009
Heightened Def Con from 2.03339e-009 to 2.03342e-009
Heightened Def Con from 2.03342e-009 to 2.03342e-009
Heightened Def Con from 2.03342e-009 to 2.03345e-009
Heightened Def Con from 2.03345e-009 +to 2.03346e-009
Heightened Def Con from 2.03346e-009 to 2.03347e-009
Heightened Def Con from 2.03347e-009 +to 2.0335e-009
Heightened Def Con from 2.0335e-009 to 2.03354e-009
Heightened Def Con from 2.03355e-009 to 2.03355e-009
Heightened Def Con from 2.03355e-009 to 2.03355e-009
Heightened Def Con from 2.03361e-009 to 2.03367e-009
Heightened Def Con from 2.03367e-009 to 2.03368e-009
Heightened Def Con from 2.03368e-009 to 2.03368e-009
Heightened Def Con from 2.03368e-009 to 2.03368e-009
Heightened Def Con from 2.03368e-009 to 2.15868e-009
Heightened Def Con from 2.15873e-009 to 2.15874e-009
Heightened Def Con from 2.15874e-009 to 2.1588e-009
Heightened Def Con from 2.15881e-009 to 2.15882e-009
Heightened Def Con from 2.15888e-009 +to 2.17454e-009
Heightened Def Con from 2.17463e-009 to 2.17463e-009
Heightened Def Con from 2.17463e-009 to 2.17466e-009
Heightened Def Con from 2.1748e-009 to 2.17483e-009
Heightened Def Con from 2.17484e-009 to 2.17512e-009
Heightened Def Con from 2.17512e-009 to 2.17521e-009
Heightened Def Con from 2.17535e-009 to 2.17545e-009
Heightened Def Con from 2.17545e-009 to 2.17545e-009
Heightened Def Con from 2.17547e-009 to 2.17554e-009
Heightened Def Con from 2.17554e-009 to 2.17554e-009
Heightened Def Con from 2.17554e-009 to 2.17579e-009
Heightened Def Con from 2.17579e-009 to 2.17579e-009
Heightened Def Con from 2.17579e-009 to 2.17579e-009
Heightened Def Con from 2.17603e-009 to 2.17604e-009
Heightened Def Con from 2.17605e-009 to 2.17608e-009
Heightened Def Con from 2.17618e-009 to 2.17622e-009
Heightened Def Con from 2.17636e-009 to 2.17639e-009
Heightened Def Con from 2.17641e-009 to 2.17668e-009
Heightened Def Con from 2.17669e-009 to 2.17672e-009
Heightened Def Con from 2.17691e-009 to 2.17695e-009
Heightened Def Con from 2.17695e-009 to 2.17701e-009
Heightened Def Con from 2.17701e-009 to 2.17707e-009
Heightened Def Con from 2.17707e-009 to 2.17709e-009
Heightened Def Con from 2.17709e-009 to 2.17715e-009
Heightened Def Con from 2.17717e-009 to 2.17718e-009
Heightened Def Con from 2.1772e-009 to 2.1772e-009
Heightened Def Con from 2.1772e-009 +to 2.17723e-009
Heightened Def Con from 2.17727e-009 to 2.17752e-009
Heightened Def Con from 2.17752e-009 to 2.17755e-009
Heightened Def Con from 2.17779e-009 to 2.17782e-009
Heightened Def Con from 2.17782e-009 to 2.17783e-009
Heightened Def Con from 2.17783e-009 to 3.17783e-009
Heightened Def Con from 3.17783e-009 to 3.17807e-009
Heightened Def Con from 3.17807e-009 to 3.17808e-009
Heightened Def Con from 3.17808e-009 to 3.19373e-009
Heightened Def Con from 3.19373e-009 to 3.19398e-009
Heightened Def Con from 3.19398e-009 to 3.19398e-009
Heightened Def Con from 3.19398e-009 to 3.19398e-009
Heightened Def Con from 3.19398e-009 to 3.19399e-009
Heightened Def Con from 3.19399e-009 to 3.19424e-009
Heightened Def Con from 3.19425e-009 to 3.19434e-009
Heightened Def Con from 3.19441e-009 to 3.19469e-009
Heightened Def Con from 3.19469e-009 to 3.31969e-009
Heightened Def Con from 3.31969e-009 to 3.31981e-009
Heightened Def Con from 3.31981e-009 to 3.31981e-009
Heightened Def Con from 3.31981e-009 to 3.31985e-009
Heightened Def Con from 3.31985e-009 to 3.31988e-009
Heightened Def Con from 3.31988e-009 +to 3.31989e-009
Heightened Def Con from 3.32025e-009 +to 3.32025e-009
Heightened Def Con from 3.32027e-009 to 3.3203e-009
Heightened Def Con from 3.3203e-009 to 3.32037e-009
Heightened Def Con from 3.32043e-009 to 3.32046e-009
Heightened Def Con from 3.32047e-009 to 3.32048e-009
Heightened Def Con from 3.32048e-009 to 3.32049e-009
Heightened Def Con from 3.32049e-009 to 3.32049e-009
Heightened Def Con from 3.32074e-009 to 3.32074e-009
Heightened Def Con from 3.32074e-009 to 3.32077e-009
Heightened Def Con from 3.32077e-009 to 3.32077e-009
Heightened Def Con from 3.32077e-009 to 3.32079e-009
Heightened Def Con from 3.32079e-009 +to 3.3208e-009
Heightened Def Con from 3.3208e-009 to 3.32108e-009
Heightened Def Con from 3.32108e-009 to 3.32109e-009
Heightened Def Con from 3.32109e-009 to 3.32305e-009
Heightened Def Con from 3.32305e-009 to 3.32306e-009
Heightened Def Con from 3.32322e-009 to 3.33888e-009
Heightened Def Con from 3.33888e-009 to 3.33894e-009
Heightened Def Con from 3.33894e-009 to 3.33894e-009
Heightened Def Con from 3.33894e-009 +to 3.33895e-009
Heightened Def Con from 3.33895e-009 +to 3.33899e-009
Heightened Def Con from 3.339e-009 to 3.33903e-009
Heightened Def Con from 3.33907e-009 to 3.33913e-009
Heightened Def Con from 3.33914e-009 to 3.33915e-009
Heightened Def Con from 3.33915e-009 to 3.33964e-009
Heightened Def Con from 3.33964e-009 to 3.33964e-009
Heightened Def Con from 3.33969e-009 to 3.33994e-009
Heightened Def Con from 3.34005e-009 to 3.34006e-009
Heightened Def Con from 3.34007e-009 to 3.34007e-009
Heightened Def Con from 3.34008e-009 to 3.34011e-009
Heightened Def Con from 3.34016e-009 to 3.34041e-009
Heightened Def Con from 3.34047e-009 to 3.34047e-009
Heightened Def Con from 3.34047e-009 to 3.34048e-009
Heightened Def Con from 3.34049e-009 to 3.34055e-009
Heightened Def Con from 3.3406e-009 to 3.34064e-009
Heightened Def Con from 3.34064e-009 to 3.34065e-009
Heightened Def Con from 3.34065e-009 to 3.34068e-009
Heightened Def Con from 3.34068e-009 +to 3.34074e-009
Heightened Def Con from 3.34074e-009 to 3.34074e-009
Heightened Def Con from 3.34074e-009 to 3.34099e-009
Heightened Def Con from 3.34099e-009 to 3.341e-009
Heightened Def Con from 3.34101e-009 to 3.34104e-009
Heightened Def Con from 3.34104e-009 to 3.34104e-009
Heightened Def Con from 3.34105e-009 +to 3.34301e-009
Heightened Def Con from 3.34301e-009 to 3.34302e-009
Heightened Def Con from 3.34302e-009 to 3.34305e-009
Heightened Def Con from 3.34318e-009 to 3.34319e-009
Heightened Def Con from 3.34321e-009 to 3.34321e-009
Heightened Def Con from 3.34321e-009 to 3.34324e-009
Heightened Def Con from 3.34327e-009 to 3.34327e-009
Heightened Def Con from 3.34359e-009 to 3.3436e-009
Heightened Def Con from 3.34371e-009 to 3.34372e-009
Heightened Def Con from 3.34374e-009 to 3.34375e-009
Heightened Def Con from 3.34375e-009 to 3.34375e-009
Heightened Def Con from 3.34375e-009 to 3.34403e-009
Heightened Def Con from 3.3441e-009 to 3.3441e-009
Heightened Def Con from 3.3441e-009 to 3.34412e-009
Heightened Def Con from 3.34412e-009 to 3.34412e-009
Heightened Def Con from 3.34418e-009 to 3.34616e-009
Heightened Def Con from 3.34616e-009 to 3.3462e-009
Heightened Def Con from 3.3462e-009 to 3.34621e-009
Heightened Def Con from 3.34622e-009 to 3.34622e-009
Heightened Def Con from 3.34623e-009 to 3.34629e-009
Heightened Def Con from 3.34634e-009 to 3.34637e-009
Heightened Def Con from 3.34649e-009 to 3.34649e-009
Heightened Def Con from 3.34649e-009 to 3.34655e-009
Heightened Def Con from 3.34655e-009 to 3.34657e-009
Heightened Def Con from 3.34657e-009 +to 3.34685e-009
Heightened Def Con from 3.34693e-009 to 3.34693e-009
Heightened Def Con from 3.34702e-009 to 3.34702e-009
Heightened Def Con from 3.34702e-009 to 3.34703e-009
Heightened Def Con from 3.34708e-009 to 3.34711e-009
Heightened Def Con from 3.34718e-009 to 3.34718e-009
Heightened Def Con from 3.34718e-009 to 3.34719e-009
Heightened Def Con from 3.34725e-009 to 3.34725e-009
Heightened Def Con from 3.34728e-009 to 3.34729e-009
Heightened Def Con from 3.34729e-009 to 3.3473e-009
Heightened Def Con from 3.3473e-009 to 3.3473e-009
Heightened Def Con from 3.34733e-009 to 3.34734e-009
Heightened Def Con from 3.34735e-009 to 3.34736e-009
Heightened Def Con from 3.34738e-009 to 3.34738e-009
Heightened Def Con from 3.34738e-009 to 3.34739e-009
Heightened Def Con from 3.3474e-009 +to 3.34744e-009
Heightened Def Con from 3.34756e-009 to 3.34756e-009
Heightened Def Con from 3.34756e-009 to 3.34759e-009
Heightened Def Con from 3.34759e-009 to 3.34761e-009
Heightened Def Con from 3.34761e-009 to 3.34762e-009
Heightened Def Con from 3.34762e-009 to 3.34763e-009
Heightened Def Con from 3.34763e-009 to 3.34763e-009
Heightened Def Con from 3.34763e-009 to 3.34764e-009
Heightened Def Con from 3.3477e-009 to 3.34773e-009
Heightened Def Con from 3.34773e-009 to 3.34779e-009
Heightened Def Con from 3.3479e-009 to 3.3479e-009
Heightened Def Con from 3.34791e-009 to 3.34794e-009
Heightened Def Con from 3.34794e-009 to 3.34794e-009
Heightened Def Con from 3.34797e-009 to 3.34803e-009
Heightened Def Con from 3.34809e-009 to 3.34815e-009
Heightened Def Con from 3.34821e-009 to 3.34824e-009
Heightened Def Con from 3.34825e-009 to 3.34825e-009
Heightened Def Con from 3.34827e-009 to 3.34827e-009
Heightened Def Con from 3.34831e-009 to 3.34831e-009
Heightened Def Con from 3.34833e-009 to 3.3484e-009
Heightened Def Con from 3.34845e-009 to 3.34849e-009
Heightened Def Con from 3.34854e-009 to 3.3505e-009
Heightened Def Con from 3.35055e-009 to 3.35058e-009
Heightened Def Con from 3.35063e-009 to 3.35259e-009
Heightened Def Con from 3.35266e-009 to 3.35269e-009
Heightened Def Con from 3.35275e-009 +to 3.35275e-009
Heightened Def Con from 3.35281e-009 to 3.35288e-009
Heightened Def Con from 3.35295e-009 to 3.35299e-009
Heightened Def Con from 3.35304e-009 to 3.35304e-009
Heightened Def Con from 3.35305e-009 to 3.35305e-009
Heightened Def Con from 3.35306e-009 to 3.35313e-009
Heightened Def Con from 3.35324e-009 to 3.35325e-009
Heightened Def Con from 3.35325e-009 to 3.35325e-009
Heightened Def Con from 3.35325e-009 to 3.35326e-009
Heightened Def Con from 3.35328e-009 to 3.35334e-009
Heightened Def Con from 3.35335e-009 to 3.35339e-009
Heightened Def Con from 3.3534e-009 +to 3.35343e-009
Heightened Def Con from 3.35351e-009 to 3.35354e-009
Heightened Def Con from 3.35361e-009 to 3.35367e-009
Heightened Def Con from 3.35371e-009 to 3.35378e-009
Heightened Def Con from 3.35387e-009 to 3.35387e-009
Heightened Def Con from 3.35387e-009 to 3.35388e-009
Heightened Def Con from 3.3539e-009 to 3.35415e-009
Heightened Def Con from 3.35415e-009 to 3.35421e-009
Heightened Def Con from 3.35422e-009 to 3.35422e-009
Heightened Def Con from 3.35426e-009 to 3.3543e-009
Heightened Def Con from 3.35438e-009 to 3.35438e-009
Heightened Def Con from 3.35439e-009 to 3.35445e-009
Heightened Def Con from 3.35446e-009 to 3.35455e-009
Heightened Def Con from 3.35459e-009 to 3.3546e-009
Heightened Def Con from 3.3546e-009 +to 3.35464e-009
Heightened Def Con from 3.35468e-009 to 3.35474e-009
Heightened Def Con from 3.35481e-009 to 3.35481e-009
Heightened Def Con from 3.35481e-009 to 3.35483e-009
Heightened Def Con from 3.35487e-009 to 3.35487e-009
Heightened Def Con from 3.35487e-009 to 3.35491e-009
Heightened Def Con from 3.35492e-009 to 3.35493e-009
Heightened Def Con from 3.35495e-009 to 3.35496e-009
Heightened Def Con from 3.3551e-009 to 3.35513e-009
Heightened Def Con from 3.35516e-009 to 3.35519e-009
Heightened Def Con from 3.35544e-009 to 3.35547e-009
Heightened Def Con from 3.35555e-009 to 3.35555e-009
Heightened Def Con from 3.35555e-009 to 3.35556e-009
Heightened Def Con from 3.35559e-009 to 3.35586e-009
Heightened Def Con from 3.35605e-009 to 3.35608e-009
Heightened Def Con from 3.35609e-009 to 3.35616e-009
Heightened Def Con from 3.35618e-009 to 3.35622e-009
Heightened Def Con from 3.35624e-009 to 3.35625e-009
Heightened Def Con from 3.35626e-009 to 3.35632e-009
Heightened Def Con from 3.35638e-009 to 3.35639e-009
Heightened Def Con from 3.35639e-009 to 3.35645e-009
Heightened Def Con from 3.35652e-009 to 3.35652e-009
Heightened Def Con from 3.35654e-009 to 3.35657e-009
Heightened Def Con from 3.35659e-009 to 3.37222e-009
Heightened Def Con from 3.37233e-009 to 3.3724e-009
Heightened Def Con from 3.37242e-009 to 3.37267e-009
Heightened Def Con from 3.37275e-009 to 3.37275e-009
Heightened Def Con from 3.37275e-009 to 3.37275e-009
Heightened Def Con from 3.37275e-009 to 3.37278e-009
Heightened Def Con from 3.37278e-009 to 3.37278e-009
Heightened Def Con from 3.37279e-009 to 3.37279e-009
Heightened Def Con from 3.37288e-009 to 3.37291e-009
Heightened Def Con from 3.37291e-009 to 3.373e-009
Heightened Def Con from 3.37302e-009 to 3.37303e-009
Heightened Def Con from 3.37304e-009 to 3.37308e-009
Heightened Def Con from 3.37312e-009 +to 3.37313e-009
Heightened Def Con from 3.37313e-009 to 3.37322e-009
Heightened Def Con from 3.37322e-009 to 3.37323e-009
Heightened Def Con from 3.37323e-009 to 3.37327e-009
Heightened Def Con from 3.37343e-009 to 3.37343e-009
Heightened Def Con from 3.37344e-009 to 3.37344e-009
Heightened Def Con from 3.37344e-009 +to 3.37347e-009
Heightened Def Con from 3.37348e-009 +to 3.37348e-009
Heightened Def Con from 3.37358e-009 to 3.37358e-009
Heightened Def Con from 3.37358e-009 to 3.37359e-009
Heightened Def Con from 3.37368e-009 to 3.37368e-009
Heightened Def Con from 3.37368e-009 +to 3.37371e-009
Heightened Def Con from 3.37372e-009 to 3.37372e-009
Heightened Def Con from 3.37372e-009 to 3.37378e-009
Heightened Def Con from 3.37385e-009 to 3.37391e-009
Heightened Def Con from 3.37394e-009 to 3.37401e-009
Heightened Def Con from 3.37419e-009 to 3.37422e-009
Heightened Def Con from 3.37422e-009 to 3.49922e-009
Heightened Def Con from 3.49922e-009 +to 3.49923e-009
Heightened Def Con from 3.49923e-009 to 3.49923e-009
Heightened Def Con from 3.49923e-009 to 4.49926e-009
Heightened Def Con from 4.49926e-009 to 4.49927e-009
Heightened Def Con from 4.49929e-009 to 4.49938e-009
Heightened Def Con from 4.4995e-009 to 4.49953e-009
Heightened Def Con from 4.49955e-009 +to 4.49962e-009
Heightened Def Con from 4.49972e-009 to 4.5e-009
Heightened Def Con from 4.50006e-009 to 4.50007e-009
Heightened Def Con from 4.50008e-009 to 4.50011e-009
Heightened Def Con from 4.50021e-009 to 4.50022e-009
Heightened Def Con from 4.50022e-009 to 4.50022e-009
Heightened Def Con from 4.50022e-009 to 4.50049e-009
Heightened Def Con from 4.5005e-009 to 4.50053e-009
Heightened Def Con from 4.50053e-009 to 4.50057e-009
Heightened Def Con from 4.50059e-009 to 4.50059e-009
Heightened Def Con from 4.5006e-009 to 4.50061e-009
Heightened Def Con from 4.50069e-009 to 4.50069e-009
Heightened Def Con from 4.50069e-009 to 4.5007e-009
Heightened Def Con from 4.50071e-009 to 4.50071e-009
Heightened Def Con from 4.50071e-009 to 4.50072e-009
Heightened Def Con from 4.50072e-009 to 4.50072e-009
Heightened Def Con from 4.50072e-009 to 4.50073e-009
Heightened Def Con from 4.50076e-009 to 4.50077e-009
Heightened Def Con from 4.50077e-009 to 4.50077e-009
Heightened Def Con from 4.50077e-009 +to 4.50086e-009
Heightened Def Con from 4.50093e-009 to 4.50097e-009
Heightened Def Con from 4.5011e-009 to 4.50111e-009
Heightened Def Con from 4.50111e-009 to 4.50114e-009
Heightened Def Con from 4.50114e-009 to 4.5012e-009
Heightened Def Con from 4.50124e-009 to 4.50124e-009
Heightened Def Con from 4.50124e-009 +to 4.50124e-009
Heightened Def Con from 4.50126e-009 to 4.5013e-009
Heightened Def Con from 4.50136e-009 to 4.50335e-009
Heightened Def Con from 4.50335e-009 to 4.50335e-009
Heightened Def Con from 4.50335e-009 to 4.50339e-009
Heightened Def Con from 4.50342e-009 to 4.50351e-009
Heightened Def Con from 4.50351e-009 to 4.50351e-009
Heightened Def Con from 4.50351e-009 to 4.50547e-009
Heightened Def Con from 4.50547e-009 to 4.50742e-009
Heightened Def Con from 4.50754e-009 to 4.50754e-009
Heightened Def Con from 4.50754e-009 to 4.50757e-009
Heightened Def Con from 4.50757e-009 to 4.50757e-009
Heightened Def Con from 4.50757e-009 +to 4.5076e-009
Heightened Def Con from 4.50761e-009 to 4.50761e-009
Heightened Def Con from 4.50761e-009 to 4.50762e-009
Heightened Def Con from 4.50764e-009 to 4.63264e-009
Heightened Def Con from 4.63265e-009 +to 4.63267e-009
Heightened Def Con from 4.63268e-009 +to 4.63272e-009
Heightened Def Con from 4.63272e-009 to 4.63272e-009
Heightened Def Con from 4.63278e-009 to 4.63278e-009
Heightened Def Con from 4.63279e-009 to 4.6328e-009
Heightened Def Con from 4.6328e-009 +to 4.63295e-009
Heightened Def Con from 4.63301e-009 to 4.6331e-009
Heightened Def Con from 4.63321e-009 +to 4.63349e-009
Heightened Def Con from 4.6335e-009 to 4.63353e-009
Heightened Def Con from 4.63361e-009 to 4.63361e-009
Heightened Def Con from 4.63361e-009 to 4.63362e-009
Heightened Def Con from 4.63363e-009 to 4.63364e-009
Heightened Def Con from 4.63364e-009 to 4.63367e-009
Heightened Def Con from 4.63373e-009 to 4.63376e-009
Heightened Def Con from 4.63376e-009 to 4.63377e-009
Heightened Def Con from 4.63377e-009 to 4.63377e-009
Heightened Def Con from 4.63378e-009 to 4.63378e-009
Heightened Def Con from 4.63384e-009 +to 4.63385e-009
Heightened Def Con from 4.63386e-009 to 4.63386e-009
Heightened Def Con from 4.63387e-009 to 4.63388e-009
Heightened Def Con from 4.6339e-009 to 4.63393e-009
Heightened Def Con from 4.63393e-009 to 4.63394e-009
Heightened Def Con from 4.63394e-009 to 4.63394e-009
Heightened Def Con from 4.63396e-009 to 4.63396e-009
Heightened Def Con from 4.63396e-009 to 4.63397e-009
Heightened Def Con from 4.63398e-009 to 4.63423e-009
Heightened Def Con from 4.63425e-009 to 4.63425e-009
Heightened Def Con from 4.63425e-009 to 4.63426e-009
Heightened Def Con from 4.63426e-009 to 4.63426e-009
Heightened Def Con from 4.63426e-009 to 4.63432e-009
Heightened Def Con from 4.63432e-009 to 4.63436e-009
Heightened Def Con from 4.63437e-009 to 4.63443e-009
Heightened Def Con from 4.63443e-009 +to 4.63443e-009
Heightened Def Con from 4.63443e-009 to 4.63444e-009
Heightened Def Con from 4.63448e-009 to 4.75949e-009
Heightened Def Con from 4.7595e-009 to 4.75951e-009
Heightened Def Con from 4.75952e-009 to 4.75956e-009
Heightened Def Con from 4.75957e-009 to 4.7596e-009
Heightened Def Con from 4.7596e-009 +to 4.75963e-009
Heightened Def Con from 4.75963e-009 to 4.75963e-009
Heightened Def Con from 4.75963e-009 +to 4.7597e-009
Heightened Def Con from 4.75971e-009 to 4.75971e-009
Heightened Def Con from 4.75971e-009 to 4.7617e-009
Heightened Def Con from 4.7617e-009 to 4.7617e-009
Heightened Def Con from 4.7617e-009 to 4.76171e-009
Heightened Def Con from 4.76171e-009 to 4.76171e-009
Heightened Def Con from 4.76171e-009 to 4.76171e-009
Heightened Def Con from 4.76171e-009 to 4.76174e-009
Heightened Def Con from 4.76174e-009 +to 4.76199e-009
Heightened Def Con from 4.762e-009 to 4.76203e-009
Heightened Def Con from 4.76203e-009 to 4.76206e-009
Heightened Def Con from 4.76206e-009 to 4.76207e-009
Heightened Def Con from 4.76207e-009 to 4.76213e-009
Heightened Def Con from 4.76215e-009 to 4.76218e-009
Heightened Def Con from 4.7622e-009 to 4.76226e-009
Heightened Def Con from 4.7623e-009 to 4.76236e-009
Heightened Def Con from 4.76236e-009 to 4.76236e-009
Heightened Def Con from 4.76247e-009 to 4.76248e-009
Heightened Def Con from 4.76249e-009 to 4.76255e-009
Heightened Def Con from 4.7626e-009 to 4.76262e-009
Heightened Def Con from 4.76263e-009 to 4.76267e-009
Heightened Def Con from 4.7629e-009 to 4.76294e-009
Heightened Def Con from 4.76326e-009 to 4.76329e-009
Heightened Def Con from 4.76329e-009 to 4.76329e-009
Heightened Def Con from 4.76329e-009 +to 4.7633e-009
Heightened Def Con from 4.76331e-009 to 4.76331e-009
Heightened Def Con from 4.76331e-009 to 4.76332e-009
Heightened Def Con from 4.76344e-009 to 4.76344e-009
Heightened Def Con from 4.76345e-009 to 4.76345e-009
Heightened Def Con from 4.76345e-009 to 4.76345e-009
Heightened Def Con from 4.76345e-009 to 4.76346e-009
Heightened Def Con from 4.76364e-009 to 4.76365e-009
Heightened Def Con from 4.76365e-009 to 4.76365e-009
Heightened Def Con from 4.76365e-009 to 4.76366e-009
Heightened Def Con from 4.76367e-009 to 4.76562e-009
Heightened Def Con from 4.76567e-009 to 4.76573e-009
Heightened Def Con from 4.76578e-009 to 4.76602e-009
Heightened Def Con from 4.76602e-009 to 4.76606e-009
Heightened Def Con from 4.76612e-009 +to 4.76612e-009
Heightened Def Con from 4.76612e-009 to 4.76618e-009
Heightened Def Con from 4.76622e-009 to 4.76622e-009
Heightened Def Con from 4.76622e-009 to 4.76622e-009
Heightened Def Con from 4.76622e-009 to 4.76623e-009
Heightened Def Con from 4.76626e-009 to 4.76626e-009
Heightened Def Con from 4.76626e-009 to 4.76627e-009
Heightened Def Con from 4.76627e-009 to 4.7663e-009
Heightened Def Con from 4.7663e-009 +to 4.76631e-009
Heightened Def Con from 4.76631e-009 to 4.76637e-009
Heightened Def Con from 4.76655e-009 to 4.76655e-009
Heightened Def Con from 4.76658e-009 to 4.76664e-009
Heightened Def Con from 4.76664e-009 +to 4.76665e-009
Heightened Def Con from 4.76665e-009 to 4.76665e-009
Heightened Def Con from 4.76665e-009 to 4.76666e-009
Heightened Def Con from 4.76666e-009 to 4.76669e-009
Heightened Def Con from 4.76669e-009 to 4.76673e-009
Heightened Def Con from 4.76675e-009 to 4.76681e-009
Heightened Def Con from 4.76682e-009 to 4.76683e-009
Heightened Def Con from 4.76683e-009 to 4.76683e-009
Heightened Def Con from 4.76685e-009 to 4.76688e-009
Heightened Def Con from 4.76693e-009 +to 4.76699e-009
Heightened Def Con from 4.76715e-009 to 4.76715e-009
Heightened Def Con from 4.76715e-009 to 4.76715e-009
Heightened Def Con from 4.76715e-009 to 4.76721e-009
Heightened Def Con from 4.76721e-009 to 4.76725e-009
Heightened Def Con from 4.76727e-009 to 4.76727e-009
Heightened Def Con from 4.76727e-009 to 4.76727e-009
Heightened Def Con from 4.76727e-009 to 4.76731e-009
Heightened Def Con from 4.76735e-009 to 4.76738e-009
Heightened Def Con from 4.76738e-009 to 4.76744e-009
Heightened Def Con from 4.76765e-009 to 4.76765e-009
Heightened Def Con from 4.76765e-009 to 4.76765e-009
Heightened Def Con from 4.76765e-009 to 4.76766e-009
Heightened Def Con from 4.76768e-009 to 4.76772e-009
Heightened Def Con from 4.76778e-009 to 4.76778e-009
Heightened Def Con from 4.76779e-009 to 4.76779e-009
Heightened Def Con from 4.76779e-009 to 4.76785e-009
Heightened Def Con from 4.76793e-009 to 4.76793e-009
Heightened Def Con from 4.76793e-009 +to 4.76794e-009
Heightened Def Con from 4.76795e-009 to 4.76795e-009
Heightened Def Con from 4.76795e-009 to 4.76796e-009
Heightened Def Con from 4.76797e-009 to 4.76803e-009
Heightened Def Con from 4.76803e-009 to 4.76809e-009
Heightened Def Con from 4.7681e-009 to 4.76811e-009
Heightened Def Con from 4.76814e-009 to 4.7682e-009
Heightened Def Con from 4.76821e-009 to 4.76827e-009
Heightened Def Con from 4.76836e-009 to 4.76837e-009
Heightened Def Con from 4.76843e-009 to 4.76844e-009
Heightened Def Con from 4.76858e-009 to 4.76858e-009
Heightened Def Con from 4.76859e-009 to 4.76859e-009
Heightened Def Con from 4.7686e-009 to 4.7686e-009
Heightened Def Con from 4.76861e-009 to 4.76885e-009
Heightened Def Con from 4.76885e-009 to 4.76888e-009
Heightened Def Con from 4.76888e-009 to 4.76894e-009
Heightened Def Con from 4.76912e-009 to 4.76912e-009
Heightened Def Con from 4.76912e-009 to 4.76918e-009
Heightened Def Con from 4.76924e-009 to 4.76925e-009
Heightened Def Con from 4.76925e-009 to 4.76925e-009
Heightened Def Con from 4.76925e-009 to 4.76925e-009
Heightened Def Con from 4.76925e-009 to 4.76928e-009
Heightened Def Con from 4.76928e-009 to 4.76929e-009
Heightened Def Con from 4.76938e-009 to 4.76939e-009
Heightened Def Con from 4.76939e-009 +to 4.76939e-009
Heightened Def Con from 4.76939e-009 to 4.76945e-009
Heightened Def Con from 4.76946e-009 to 4.7695e-009
Heightened Def Con from 4.76959e-009 to 4.76965e-009
Heightened Def Con from 4.76966e-009 to 4.76966e-009
Heightened Def Con from 4.76966e-009 to 4.76972e-009
Heightened Def Con from 4.76974e-009 to 4.76974e-009
Heightened Def Con from 4.76975e-009 to 4.76981e-009
Heightened Def Con from 4.76993e-009 to 4.76994e-009
Heightened Def Con from 4.76994e-009 to 4.76994e-009
Heightened Def Con from 4.76995e-009 to 4.76996e-009
Heightened Def Con from 4.76996e-009 to 4.77002e-009
Heightened Def Con from 4.77003e-009 to 4.77006e-009
Heightened Def Con from 4.77013e-009 to 4.77014e-009
Heightened Def Con from 4.77025e-009 to 4.77025e-009
Heightened Def Con from 4.77025e-009 to 4.77029e-009
Heightened Def Con from 4.77032e-009 to 4.77033e-009
Heightened Def Con from 4.77041e-009 to 4.77044e-009
Heightened Def Con from 4.77045e-009 to 4.77046e-009
Heightened Def Con from 4.77046e-009 to 4.77052e-009
Heightened Def Con from 4.77055e-009 to 4.77079e-009
Heightened Def Con from 4.7709e-009 to 4.77091e-009
Heightened Def Con from 4.77094e-009 to 4.77095e-009
Heightened Def Con from 4.77095e-009 to 4.77101e-009
Heightened Def Con from 4.77101e-009 to 4.77107e-009
Heightened Def Con from 4.77108e-009 +to 4.77108e-009
Heightened Def Con from 4.77108e-009 to 4.77108e-009
Heightened Def Con from 4.77108e-009 to 4.77115e-009
Heightened Def Con from 4.77118e-009 to 4.77118e-009
Heightened Def Con from 4.7712e-009 to 4.78686e-009
Heightened Def Con from 4.78686e-009 to 4.78689e-009
Heightened Def Con from 4.78689e-009 to 4.78692e-009
Heightened Def Con from 4.78692e-009 +to 4.78696e-009
Heightened Def Con from 4.78696e-009 to 4.78696e-009
Heightened Def Con from 4.78697e-009 to 4.78703e-009
Heightened Def Con from 4.78704e-009 to 4.789e-009
Heightened Def Con from 4.789e-009 to 4.78901e-009
Heightened Def Con from 4.78901e-009 to 4.78907e-009
Heightened Def Con from 4.78907e-009 to 4.78908e-009
Heightened Def Con from 4.78908e-009 +to 4.78911e-009
Heightened Def Con from 4.78912e-009 to 4.78912e-009
Heightened Def Con from 4.78912e-009 to 4.78921e-009
Heightened Def Con from 4.78923e-009 to 4.78923e-009
Heightened Def Con from 4.78923e-009 to 4.78924e-009
Heightened Def Con from 4.78925e-009 to 4.78926e-009
Heightened Def Con from 4.78926e-009 to 4.78929e-009
Heightened Def Con from 4.78944e-009 to 4.78944e-009
Heightened Def Con from 4.78944e-009 to 4.78971e-009
Heightened Def Con from 4.78975e-009 to 4.78981e-009
Heightened Def Con from 4.78982e-009 to 4.78991e-009
Heightened Def Con from 4.78991e-009 to 4.78992e-009
Heightened Def Con from 4.78992e-009 to 4.78993e-009
Heightened Def Con from 4.78993e-009 to 4.78994e-009
Heightened Def Con from 4.78994e-009 to 4.79192e-009
Heightened Def Con from 4.79199e-009 to 4.79199e-009
Heightened Def Con from 4.79199e-009 to 4.79199e-009
Heightened Def Con from 4.79199e-009 to 4.792e-009
Heightened Def Con from 4.792e-009 to 4.79203e-009
Heightened Def Con from 4.79203e-009 to 4.79207e-009
Heightened Def Con from 4.79207e-009 to 4.79207e-009
Heightened Def Con from 4.79208e-009 to 4.79211e-009
Heightened Def Con from 4.79211e-009 to 4.79217e-009
Heightened Def Con from 4.79217e-009 to 4.8078e-009
Heightened Def Con from 4.8078e-009 to 4.8078e-009
Heightened Def Con from 4.80781e-009 to 4.80781e-009
Heightened Def Con from 4.80781e-009 to 4.80781e-009
Heightened Def Con from 4.80782e-009 to 4.80783e-009
Heightened Def Con from 4.80783e-009 to 4.80784e-009
Heightened Def Con from 4.80792e-009 to 4.80816e-009
Heightened Def Con from 4.80824e-009 to 4.80825e-009
Heightened Def Con from 4.80825e-009 to 4.80831e-009
Heightened Def Con from 4.80833e-009 to 4.80833e-009
Heightened Def Con from 4.8084e-009 to 4.80865e-009
Heightened Def Con from 4.80865e-009 to 4.80869e-009
Heightened Def Con from 4.8087e-009 to 4.80871e-009
Heightened Def Con from 4.80874e-009 +to 4.80877e-009
Heightened Def Con from 4.80881e-009 to 4.80882e-009
Heightened Def Con from 4.80887e-009 to 4.80888e-009
Heightened Def Con from 4.80888e-009 to 4.80912e-009
Heightened Def Con from 4.80912e-009 to 4.80913e-009
Heightened Def Con from 4.80914e-009 to 4.80914e-009
Heightened Def Con from 4.80915e-009 to 4.80915e-009
Heightened Def Con from 4.80915e-009 to 4.80915e-009
Heightened Def Con from 4.80915e-009 to 4.80916e-009
Heightened Def Con from 4.80916e-009 to 4.80916e-009
Heightened Def Con from 4.80916e-009 to 4.80917e-009
Heightened Def Con from 4.80927e-009 to 4.8093e-009
Heightened Def Con from 4.80931e-009 to 4.80934e-009
Heightened Def Con from 4.80939e-009 to 4.80942e-009
Heightened Def Con from 4.80943e-009 to 4.80944e-009
Heightened Def Con from 4.80958e-009 to 4.80986e-009
Heightened Def Con from 4.80986e-009 to 4.80989e-009
Heightened Def Con from 4.80991e-009 to 4.80994e-009
Heightened Def Con from 4.81003e-009 to 4.81006e-009
Heightened Def Con from 4.81008e-009 to 4.81014e-009
Heightened Def Con from 4.81019e-009 to 4.81025e-009
Heightened Def Con from 4.81026e-009 to 4.81027e-009
Heightened Def Con from 4.81027e-009 to 4.8103e-009
Heightened Def Con from 4.8103e-009 to 4.81055e-009
Heightened Def Con from 4.8106e-009 to 4.8106e-009
Heightened Def Con from 4.8106e-009 to 4.8106e-009
Heightened Def Con from 4.8106e-009 to 4.81066e-009
Heightened Def Con from 4.81066e-009 to 4.8107e-009
Heightened Def Con from 4.8107e-009 +to 4.81073e-009
Heightened Def Con from 4.81073e-009 +to 4.81074e-009
Heightened Def Con from 4.81074e-009 to 4.81077e-009
Heightened Def Con from 4.81077e-009 to 4.81079e-009
Heightened Def Con from 4.8108e-009 to 4.8108e-009
Heightened Def Con from 4.8108e-009 to 4.8108e-009
Heightened Def Con from 4.81081e-009 to 4.81108e-009
Heightened Def Con from 4.8112e-009 to 4.81123e-009
Heightened Def Con from 4.81128e-009 to 4.8113e-009
Heightened Def Con from 4.81134e-009 to 4.81134e-009
Heightened Def Con from 4.81134e-009 to 4.81138e-009
Heightened Def Con from 4.81138e-009 to 4.81144e-009
Heightened Def Con from 4.81146e-009 to 4.81146e-009
Heightened Def Con from 4.81147e-009 to 4.8115e-009
Heightened Def Con from 4.81156e-009 to 4.81162e-009
Heightened Def Con from 4.81168e-009 to 4.81168e-009
Heightened Def Con from 4.81168e-009 to 4.81171e-009
Heightened Def Con from 4.81172e-009 to 4.81172e-009
Heightened Def Con from 4.81172e-009 to 4.81176e-009
Heightened Def Con from 4.81179e-009 to 4.81186e-009
Heightened Def Con from 4.81186e-009 to 4.81192e-009
Heightened Def Con from 4.81192e-009 to 4.81193e-009
Heightened Def Con from 4.81194e-009 to 4.812e-009
Heightened Def Con from 4.81202e-009 to 4.81202e-009
Heightened Def Con from 4.81202e-009 to 4.81205e-009
Heightened Def Con from 4.81206e-009 to 4.81206e-009
Heightened Def Con from 4.81209e-009 +to 4.81212e-009
Heightened Def Con from 4.81215e-009 +to 4.81216e-009
Heightened Def Con from 4.81216e-009 to 4.81217e-009
Heightened Def Con from 4.81224e-009 to 4.8123e-009
Heightened Def Con from 4.81237e-009 to 4.8124e-009
Heightened Def Con from 4.81253e-009 +to 4.81278e-009
Heightened Def Con from 4.81278e-009 to 4.81327e-009
Heightened Def Con from 4.81327e-009 to 4.81327e-009
Heightened Def Con from 4.81327e-009 to 4.81333e-009
Heightened Def Con from 4.81333e-009 to 4.81334e-009
Heightened Def Con from 4.8136e-009 to 4.81363e-009
Heightened Def Con from 4.81376e-009 +to 4.81377e-009
Heightened Def Con from 4.81377e-009 to 4.81377e-009
Heightened Def Con from 4.81377e-009 to 4.81377e-009
Heightened Def Con from 4.81378e-009 to 4.81384e-009
Heightened Def Con from 4.81385e-009 to 4.81391e-009
Heightened Def Con from 4.81399e-009 to 4.81399e-009
Heightened Def Con from 4.81399e-009 to 4.81406e-009
Heightened Def Con from 4.81407e-009 to 4.81407e-009
Heightened Def Con from 4.81407e-009 to 4.81407e-009
Heightened Def Con from 4.81407e-009 to 4.81413e-009
Heightened Def Con from 4.81419e-009 to 4.81444e-009
Heightened Def Con from 4.81456e-009 to 4.81459e-009
Heightened Def Con from 4.81459e-009 to 4.81459e-009
Heightened Def Con from 4.81459e-009 to 4.81465e-009
Heightened Def Con from 4.81466e-009 to 4.81467e-009
Heightened Def Con from 4.81468e-009 to 4.81474e-009
Heightened Def Con from 4.81489e-009 to 4.81489e-009
Heightened Def Con from 4.81491e-009 to 4.81494e-009
Heightened Def Con from 4.81498e-009 to 4.81504e-009
Heightened Def Con from 4.81504e-009 to 4.8151e-009
Heightened Def Con from 4.8152e-009 to 4.81523e-009
Heightened Def Con from 4.81526e-009 to 4.81532e-009
Heightened Def Con from 4.81538e-009 to 4.81539e-009
Heightened Def Con from 4.81542e-009 to 4.81542e-009
Heightened Def Con from 4.81542e-009 to 4.81542e-009
Heightened Def Con from 4.81542e-009 to 4.81546e-009
Heightened Def Con from 4.81551e-009 to 4.81554e-009
Heightened Def Con from 4.81563e-009 to 4.81563e-009
Heightened Def Con from 4.81563e-009 to 4.81567e-009
Heightened Def Con from 4.81567e-009 to 4.81573e-009
Heightened Def Con from 4.81585e-009 to 4.81612e-009
[...]
Heightened Def Con from 1.64309e-007 to 1.64309e-007
Heightened Def Con from 1.64309e-007 to 1.64309e-007
Heightened Def Con from 1.64309e-007 to 1.64309e-007
Heightened Def Con from 1.64309e-007 to 1.64309e-007
Heightened Def Con from 1.64309e-007 to 1.64309e-007
Heightened Def Con from 1.64309e-007 to 1.64309e-007
Heightened Def Con from 1.6431e-007 to 1.6431e-007
Heightened Def Con from 1.6431e-007 to 1.6431e-007
Heightened Def Con from 1.6431e-007 to 1.6431e-007
Heightened Def Con from 1.6431e-007 to 1.6431e-007
Heightened Def Con from 1.6431e-007 to 1.6431e-007
Heightened Def Con from 1.6431e-007 to 1.6431e-007
Heightened Def Con from 1.6431e-007 to 1.6431e-007
Heightened Def Con from 1.6431e-007 to 1.6431e-007
Heightened Def Con from 1.6431e-007 to 1.6431e-007
Heightened Def Con from 1.6431e-007 +to 1.6431e-007
Heightened Def Con from 1.6431e-007 to 1.6431e-007
Heightened Def Con from 1.6431e-007 to 1.6431e-007
Heightened Def Con from 1.6431e-007 +to 1.6431e-007
Heightened Def Con from 1.6431e-007 to 1.6431e-007
Heightened Def Con from 1.6431e-007 to 1.64311e-007
Heightened Def Con from 1.64311e-007 to 1.64311e-007
Heightened Def Con from 1.64311e-007 +to 1.64311e-007
Heightened Def Con from 1.64311e-007 +to 1.64311e-007
Heightened Def Con from 1.64311e-007 to 1.64311e-007
Heightened Def Con from 1.64311e-007 +to 1.64311e-007
Heightened Def Con from 1.64311e-007 to 1.64311e-007
Heightened Def Con from 1.64311e-007 to 1.64311e-007
Heightened Def Con from 1.64311e-007 to 1.64311e-007
Heightened Def Con from 1.64311e-007 to 1.64311e-007
Heightened Def Con from 1.64312e-007 to 1.64312e-007
Heightened Def Con from 1.64312e-007 to 1.64312e-007
Heightened Def Con from 1.64312e-007 to 1.64312e-007
Heightened Def Con from 1.64312e-007 to 1.64312e-007
Heightened Def Con from 1.64312e-007 to 1.64312e-007
Heightened Def Con from 1.64312e-007 to 1.64312e-007
Heightened Def Con from 1.64312e-007 to 1.64312e-007
Heightened Def Con from 1.64312e-007 to 1.64312e-007
Heightened Def Con from 1.64312e-007 to 1.64312e-007
Heightened Def Con from 1.64312e-007 to 1.64312e-007
Heightened Def Con from 1.64312e-007 to 1.64312e-007
Heightened Def Con from 1.64312e-007 to 1.64312e-007
Heightened Def Con from 1.64312e-007 to 1.64312e-007
Heightened Def Con from 1.64312e-007 to 1.64312e-007
Heightened Def Con from 1.64312e-007 +to 1.64312e-007
Heightened Def Con from 1.64312e-007 to 1.64312e-007
Heightened Def Con from 1.64313e-007 +to 1.64313e-007
Heightened Def Con from 1.64313e-007 +to 1.64313e-007
Heightened Def Con from 1.64313e-007 to 1.64313e-007
Heightened Def Con from 1.64313e-007 to 1.64313e-007
Heightened Def Con from 1.64313e-007 to 1.64313e-007
Heightened Def Con from 1.64313e-007 to 1.64313e-007
Heightened Def Con from 1.64313e-007 to 1.64313e-007
Heightened Def Con from 1.64313e-007 to 1.64313e-007
Heightened Def Con from 1.64313e-007 to 1.64313e-007
Heightened Def Con from 1.64313e-007 to 1.64313e-007
Heightened Def Con from 1.64313e-007 to 1.64313e-007
Heightened Def Con from 1.64313e-007 to 1.64313e-007
Heightened Def Con from 1.64313e-007 to 1.64313e-007
Heightened Def Con from 1.64313e-007 to 1.64314e-007
Heightened Def Con from 1.64314e-007 to 1.64314e-007
Heightened Def Con from 1.64314e-007 to 1.64314e-007
Heightened Def Con from 1.64314e-007 to 1.64314e-007
Heightened Def Con from 1.64314e-007 to 1.64314e-007
Heightened Def Con from 1.64314e-007 to 1.64314e-007
Heightened Def Con from 1.64314e-007 to 1.64314e-007
Heightened Def Con from 1.64314e-007 to 1.64314e-007
Heightened Def Con from 1.64314e-007 to 1.64314e-007
Heightened Def Con from 1.64314e-007 to 1.64314e-007
Heightened Def Con from 1.64314e-007 to 1.64314e-007
Heightened Def Con from 1.64314e-007 to 1.64314e-007
Heightened Def Con from 1.64314e-007 to 1.64314e-007
Heightened Def Con from 1.64314e-007 to 1.64314e-007
Heightened Def Con from 1.64314e-007 to 1.64314e-007
Heightened Def Con from 1.64314e-007 to 1.64314e-007
Heightened Def Con from 1.64314e-007 ++to 1.64314e-007
Heightened Def Con from 1.64314e-007 to 1.64314e-007
Heightened Def Con from 1.64314e-007 +to 1.64314e-007
Heightened Def Con from 1.64314e-007 +to 1.64314e-007
Heightened Def Con from 1.64315e-007 to 1.64315e-007
Heightened Def Con from 1.64315e-007 to 1.64315e-007
Heightened Def Con from 1.64315e-007 to 1.64315e-007
Heightened Def Con from 1.64315e-007 to 1.64315e-007
Heightened Def Con from 1.64315e-007 to 1.64315e-007
Heightened Def Con from 1.64315e-007 to 1.64315e-007
Heightened Def Con from 1.64315e-007 to 1.64315e-007
Heightened Def Con from 1.64315e-007 to 1.64315e-007
Heightened Def Con from 1.64315e-007 to 1.64315e-007
Heightened Def Con from 1.64315e-007 to 1.64315e-007
Heightened Def Con from 1.64315e-007 to 1.64315e-007
Heightened Def Con from 1.64315e-007 to 1.64315e-007
Heightened Def Con from 1.64315e-007 to 1.64315e-007
Heightened Def Con from 1.64315e-007 to 1.64315e-007
Heightened Def Con from 1.64315e-007 +to 1.64315e-007
Heightened Def Con from 1.64315e-007 to 1.64315e-007
Heightened Def Con from 1.64315e-007 to 1.64315e-007
Heightened Def Con from 1.64315e-007 to 1.64315e-007
Heightened Def Con from 1.64315e-007 to 1.64315e-007
Heightened Def Con from 1.64315e-007 to 1.64315e-007
Heightened Def Con from 1.64315e-007 to 1.64315e-007
Heightened Def Con from 1.64315e-007 to 1.64315e-007
Heightened Def Con from 1.64315e-007 to 1.64315e-007
Heightened Def Con from 1.64315e-007 to 1.64316e-007
Heightened Def Con from 1.64316e-007 to 1.64316e-007
Heightened Def Con from 1.64316e-007 to 1.64316e-007
Heightened Def Con from 1.64316e-007 to 1.64316e-007
Heightened Def Con from 1.64316e-007 to 1.64316e-007
Heightened Def Con from 1.64316e-007 +to 1.64316e-007
Heightened Def Con from 1.64316e-007 to 1.64316e-007
Heightened Def Con from 1.64316e-007 to 1.64316e-007
Heightened Def Con from 1.64316e-007 to 1.64316e-007
Heightened Def Con from 1.64316e-007 to 1.64316e-007
Heightened Def Con from 1.64316e-007 to 1.64316e-007
Heightened Def Con from 1.64316e-007 to 1.64316e-007
Heightened Def Con from 1.64316e-007 to 1.64316e-007
Heightened Def Con from 1.64316e-007 to 1.64316e-007
Heightened Def Con from 1.64316e-007 +to 1.64316e-007
Heightened Def Con from 1.64316e-007 to 1.64316e-007
Heightened Def Con from 1.64316e-007 to 1.64316e-007
Heightened Def Con from 1.64316e-007 to 1.64316e-007
Heightened Def Con from 1.64316e-007 to 1.64316e-007
Heightened Def Con from 1.64316e-007 to 1.64316e-007
Heightened Def Con from 1.64316e-007 to 1.64316e-007
Heightened Def Con from 1.64316e-007 to 1.64316e-007
Heightened Def Con from 1.64316e-007 to 1.64318e-007
Heightened Def Con from 1.64318e-007 to 1.64318e-007
Heightened Def Con from 1.64318e-007 to 1.64318e-007
Heightened Def Con from 1.64318e-007 to 1.64318e-007
Heightened Def Con from 1.64318e-007 to 1.64318e-007
Heightened Def Con from 1.64318e-007 to 1.64318e-007
Heightened Def Con from 1.64318e-007 to 1.64318e-007
Heightened Def Con from 1.64318e-007 to 1.64318e-007
Heightened Def Con from 1.64318e-007 to 1.64318e-007
Heightened Def Con from 1.64318e-007 +to 1.64318e-007
Heightened Def Con from 1.64318e-007 to 1.64318e-007
Heightened Def Con from 1.64318e-007 +to 1.64318e-007
Heightened Def Con from 1.64318e-007 to 1.64318e-007
Heightened Def Con from 1.64318e-007 to 1.64318e-007
Heightened Def Con from 1.64318e-007 to 1.64319e-007
Heightened Def Con from 1.64319e-007 to 1.64319e-007
Heightened Def Con from 1.64319e-007 to 1.64319e-007
Heightened Def Con from 1.64319e-007 to 1.64319e-007
Heightened Def Con from 1.64319e-007 +to 1.64319e-007
Heightened Def Con from 1.64319e-007 to 1.64319e-007
Heightened Def Con from 1.64319e-007 to 1.64319e-007
Heightened Def Con from 1.64319e-007 to 1.64319e-007
Heightened Def Con from 1.64319e-007 to 1.64319e-007
Heightened Def Con from 1.64319e-007 to 1.64319e-007
Heightened Def Con from 1.64319e-007 to 1.64319e-007
Heightened Def Con from 1.64319e-007 +to 1.64319e-007
Heightened Def Con from 1.64319e-007 to 1.64319e-007
Heightened Def Con from 1.64319e-007 +to 1.64319e-007
Heightened Def Con from 1.64319e-007 to 1.64319e-007
Heightened Def Con from 1.64319e-007 to 1.64319e-007
Heightened Def Con from 1.64319e-007 to 1.64319e-007
Heightened Def Con from 1.64319e-007 +to 1.64319e-007
Heightened Def Con from 1.64319e-007 to 1.64319e-007
Heightened Def Con from 1.64319e-007 to 1.64319e-007
Heightened Def Con from 1.64319e-007 to 1.64319e-007
Heightened Def Con from 1.64319e-007 to 1.64319e-007
Heightened Def Con from 1.64319e-007 to 1.64319e-007
Heightened Def Con from 1.64319e-007 to 1.64319e-007
Heightened Def Con from 1.64319e-007 to 1.64319e-007
Heightened Def Con from 1.64319e-007 to 1.64321e-007
Heightened Def Con from 1.64321e-007 to 1.64321e-007
Heightened Def Con from 1.64321e-007 to 1.64321e-007
Heightened Def Con from 1.64321e-007 to 1.64321e-007
Heightened Def Con from 1.64321e-007 to 1.64321e-007
Heightened Def Con from 1.64321e-007 to 1.64321e-007
Heightened Def Con from 1.64321e-007 to 1.64321e-007
Heightened Def Con from 1.64321e-007 to 1.64321e-007
Heightened Def Con from 1.64321e-007 to 1.64321e-007
Heightened Def Con from 1.64321e-007 to 1.64321e-007
Heightened Def Con from 1.64321e-007 to 1.64321e-007
Heightened Def Con from 1.64321e-007 to 1.64321e-007
Heightened Def Con from 1.64321e-007 to 1.64321e-007
Heightened Def Con from 1.64322e-007 to 1.64322e-007
Heightened Def Con from 1.64322e-007 to 1.64322e-007
Heightened Def Con from 1.64322e-007 to 1.64322e-007
Heightened Def Con from 1.64322e-007 to 1.64322e-007
Heightened Def Con from 1.64322e-007 to 1.64322e-007
Heightened Def Con from 1.64322e-007 to 1.64322e-007
Heightened Def Con from 1.64322e-007 to 1.64322e-007
Heightened Def Con from 1.64322e-007 +to 1.64337e-007
Heightened Def Con from 1.64337e-007 to 1.64339e-007
Heightened Def Con from 1.64339e-007 to 1.64339e-007
Heightened Def Con from 1.64339e-007 to 1.6434e-007
Heightened Def Con from 1.6434e-007 to 1.6434e-007
Heightened Def Con from 1.6434e-007 to 1.6434e-007
Heightened Def Con from 1.6434e-007 to 1.6434e-007
Heightened Def Con from 1.6434e-007 to 1.6434e-007
Heightened Def Con from 1.6434e-007 to 1.6434e-007
Heightened Def Con from 1.6434e-007 to 1.6434e-007
Heightened Def Con from 1.64341e-007 to 1.64341e-007
Heightened Def Con from 1.64341e-007 to 1.64341e-007
Heightened Def Con from 1.64341e-007 to 1.64341e-007
Heightened Def Con from 1.64341e-007 +to 1.64343e-007
Heightened Def Con from 1.64343e-007 ++to 1.64343e-007
Heightened Def Con from 1.64343e-007 to 1.64343e-007
Heightened Def Con from 1.64343e-007 to 1.64343e-007
Heightened Def Con from 1.64343e-007 to 1.64343e-007
Heightened Def Con from 1.64343e-007 to 1.64343e-007
Heightened Def Con from 1.64343e-007 to 1.64344e-007
Heightened Def Con from 1.64344e-007 to 1.64344e-007
Heightened Def Con from 1.64344e-007 to 1.64344e-007
Heightened Def Con from 1.64344e-007 to 1.64344e-007
Heightened Def Con from 1.64344e-007 to 1.64344e-007
Heightened Def Con from 1.64345e-007 to 1.64345e-007
Heightened Def Con from 1.64345e-007 to 1.64345e-007
Heightened Def Con from 1.64345e-007 to 1.64345e-007
Heightened Def Con from 1.64345e-007 to 1.64345e-007
Heightened Def Con from 1.64345e-007 to 1.64345e-007
Heightened Def Con from 1.64345e-007 to 1.64345e-007
Heightened Def Con from 1.64345e-007 to 1.64345e-007
Heightened Def Con from 1.64345e-007 +to 1.64345e-007
Heightened Def Con from 1.64345e-007 to 1.64345e-007
Heightened Def Con from 1.64345e-007 to 1.64346e-007
Heightened Def Con from 1.64346e-007 to 1.64346e-007
Heightened Def Con from 1.64346e-007 to 1.64346e-007
Heightened Def Con from 1.64346e-007 to 1.64346e-007
Heightened Def Con from 1.64346e-007 to 1.64346e-007
Heightened Def Con from 1.64346e-007 to 1.64346e-007
Heightened Def Con from 1.64346e-007 to 1.64346e-007
Heightened Def Con from 1.64346e-007 +to 1.64346e-007
Heightened Def Con from 1.64346e-007 to 1.64346e-007
Heightened Def Con from 1.64346e-007 to 1.64346e-007
Heightened Def Con from 1.64346e-007 to 1.64346e-007
Heightened Def Con from 1.64346e-007 to 1.64346e-007
Heightened Def Con from 1.64347e-007 to 1.64347e-007
Heightened Def Con from 1.64347e-007 to 1.64347e-007
Heightened Def Con from 1.64347e-007 to 1.64347e-007
Heightened Def Con from 1.64347e-007 to 1.64347e-007
Heightened Def Con from 1.64347e-007 to 1.64347e-007
Heightened Def Con from 1.64347e-007 to 1.64347e-007
Heightened Def Con from 1.64347e-007 to 1.64347e-007
Heightened Def Con from 1.64347e-007 to 1.64347e-007
Heightened Def Con from 1.64347e-007 to 1.64347e-007
Heightened Def Con from 1.64347e-007 to 1.64347e-007
Heightened Def Con from 1.64347e-007 to 1.64347e-007
Heightened Def Con from 1.64347e-007 to 1.64347e-007
Heightened Def Con from 1.64347e-007 to 1.64347e-007
Heightened Def Con from 1.64347e-007 to 1.64348e-007
Heightened Def Con from 1.64348e-007 to 1.64348e-007
Heightened Def Con from 1.64348e-007 to 1.64348e-007
Heightened Def Con from 1.64348e-007 to 1.64348e-007
Heightened Def Con from 1.64348e-007 to 1.64348e-007
Heightened Def Con from 1.64348e-007 to 1.64348e-007
Heightened Def Con from 1.64348e-007 to 1.64348e-007
Heightened Def Con from 1.64348e-007 to 1.64348e-007
Heightened Def Con from 1.64348e-007 +to 1.64348e-007
Heightened Def Con from 1.64348e-007 to 1.64348e-007
Heightened Def Con from 1.64348e-007 to 1.64348e-007
Heightened Def Con from 1.64348e-007 +to 1.64348e-007
Heightened Def Con from 1.64348e-007 to 1.6435e-007
Heightened Def Con from 1.6435e-007 to 1.6435e-007
Heightened Def Con from 1.6435e-007 to 1.6435e-007
Heightened Def Con from 1.6435e-007 to 1.6435e-007
Heightened Def Con from 1.6435e-007 to 1.6435e-007
Heightened Def Con from 1.6435e-007 to 1.6435e-007
Heightened Def Con from 1.6435e-007 to 1.6435e-007
Heightened Def Con from 1.6435e-007 to 1.6435e-007
Heightened Def Con from 1.6435e-007 to 1.6435e-007
Heightened Def Con from 1.6435e-007 to 1.6435e-007
Heightened Def Con from 1.6435e-007 to 1.6435e-007
Heightened Def Con from 1.6435e-007 to 1.6435e-007
Heightened Def Con from 1.6435e-007 to 1.6435e-007
Heightened Def Con from 1.6435e-007 to 1.6435e-007
Heightened Def Con from 1.6435e-007 to 1.6435e-007
Heightened Def Con from 1.6435e-007 to 1.6435e-007
Heightened Def Con from 1.6435e-007 to 1.64351e-007
Heightened Def Con from 1.64351e-007 to 1.64351e-007
Heightened Def Con from 1.64351e-007 to 1.64351e-007
Heightened Def Con from 1.64351e-007 to 1.64351e-007
Heightened Def Con from 1.64351e-007 to 1.64351e-007
Heightened Def Con from 1.64351e-007 to 1.64351e-007
Heightened Def Con from 1.64351e-007 to 1.64351e-007
Heightened Def Con from 1.64351e-007 +to 1.64351e-007
Heightened Def Con from 1.64351e-007 to 1.64351e-007
Heightened Def Con from 1.64351e-007 to 1.64351e-007
Heightened Def Con from 1.64351e-007 to 1.64351e-007
Heightened Def Con from 1.64351e-007 +to 1.64351e-007
Heightened Def Con from 1.64351e-007 to 1.64351e-007
Heightened Def Con from 1.64351e-007 to 1.64351e-007
Heightened Def Con from 1.64351e-007 to 1.64351e-007
Heightened Def Con from 1.64351e-007 to 1.64351e-007
Heightened Def Con from 1.64351e-007 to 1.64351e-007
Heightened Def Con from 1.64351e-007 to 1.64352e-007
Heightened Def Con from 1.64352e-007 to 1.64352e-007
Heightened Def Con from 1.64352e-007 to 1.64352e-007
Heightened Def Con from 1.64352e-007 +to 1.64352e-007
Heightened Def Con from 1.64352e-007 to 1.64352e-007
Heightened Def Con from 1.64352e-007 to 1.64352e-007
Heightened Def Con from 1.64352e-007 ++to 1.64352e-007
Heightened Def Con from 1.64352e-007 to 1.64352e-007
Heightened Def Con from 1.64352e-007 to 1.64352e-007
Heightened Def Con from 1.64352e-007 to 1.64352e-007
Heightened Def Con from 1.64352e-007 to 1.64352e-007
Heightened Def Con from 1.64352e-007 to 1.64352e-007
Heightened Def Con from 1.64352e-007 to 1.64352e-007
Heightened Def Con from 1.64352e-007 to 1.64352e-007
Heightened Def Con from 1.64352e-007 to 1.64352e-007
Heightened Def Con from 1.64352e-007 to 1.64352e-007
Heightened Def Con from 1.64352e-007 +to 1.64352e-007
Heightened Def Con from 1.64352e-007 to 1.64352e-007
Heightened Def Con from 1.64352e-007 to 1.64352e-007
Heightened Def Con from 1.64352e-007 to 1.64352e-007
Heightened Def Con from 1.64353e-007 to 1.64353e-007
Heightened Def Con from 1.64353e-007 to 1.64353e-007
Heightened Def Con from 1.64353e-007 to 1.64353e-007
Heightened Def Con from 1.64353e-007 to 1.64353e-007
Heightened Def Con from 1.64353e-007 to 1.64353e-007
Heightened Def Con from 1.64353e-007 to 1.64353e-007
Heightened Def Con from 1.64353e-007 to 1.64353e-007
Heightened Def Con from 1.64353e-007 to 1.64353e-007
Heightened Def Con from 1.64353e-007 to 1.64353e-007
Heightened Def Con from 1.64353e-007 to 1.64353e-007
Heightened Def Con from 1.64353e-007 to 1.64353e-007
Heightened Def Con from 1.64353e-007 to 1.64353e-007
Heightened Def Con from 1.64353e-007 +to 1.64353e-007
Heightened Def Con from 1.64353e-007 to 1.64353e-007
Heightened Def Con from 1.64353e-007 to 1.64354e-007
Heightened Def Con from 1.64354e-007 +to 1.64354e-007
Heightened Def Con from 1.64354e-007 to 1.64354e-007
Heightened Def Con from 1.64354e-007 to 1.64354e-007
Heightened Def Con from 1.64354e-007 +to 1.64354e-007
Heightened Def Con from 1.64354e-007 to 1.64354e-007
Heightened Def Con from 1.64354e-007 to 1.64354e-007
Heightened Def Con from 1.64354e-007 to 1.64354e-007
Heightened Def Con from 1.64354e-007 to 1.64354e-007
Heightened Def Con from 1.64354e-007 to 1.64354e-007
Heightened Def Con from 1.64354e-007 to 1.64354e-007
Heightened Def Con from 1.64354e-007 to 1.64354e-007
Heightened Def Con from 1.64354e-007 to 1.64354e-007
Heightened Def Con from 1.64354e-007 to 1.64354e-007
Heightened Def Con from 1.64354e-007 to 1.64354e-007
Heightened Def Con from 1.64354e-007 to 1.64354e-007
Heightened Def Con from 1.64354e-007 to 1.64354e-007
Heightened Def Con from 1.64354e-007 to 1.64354e-007
Heightened Def Con from 1.64354e-007 to 1.64354e-007
Heightened Def Con from 1.64354e-007 to 1.64354e-007
Heightened Def Con from 1.64354e-007 to 1.64354e-007
Heightened Def Con from 1.64354e-007 to 1.64354e-007
Heightened Def Con from 1.64354e-007 +to 1.64354e-007
Heightened Def Con from 1.64354e-007 to 1.64354e-007
Heightened Def Con from 1.64354e-007 to 1.64354e-007
Heightened Def Con from 1.64354e-007 to 1.64354e-007
Heightened Def Con from 1.64354e-007 to 1.64354e-007
Heightened Def Con from 1.64354e-007 +to 1.64354e-007
Heightened Def Con from 1.64354e-007 to 1.64354e-007
Heightened Def Con from 1.64354e-007 to 1.64354e-007
Heightened Def Con from 1.64354e-007 to 1.64354e-007
Heightened Def Con from 1.64354e-007 to 1.64354e-007
Heightened Def Con from 1.64355e-007 to 1.64355e-007
Heightened Def Con from 1.64355e-007 to 1.64355e-007
Heightened Def Con from 1.64355e-007 to 1.64355e-007
Heightened Def Con from 1.64355e-007 to 1.64355e-007
Heightened Def Con from 1.64355e-007 to 1.64355e-007
Heightened Def Con from 1.64355e-007 to 1.64355e-007
Heightened Def Con from 1.64355e-007 +to 1.64355e-007
Heightened Def Con from 1.64355e-007 to 1.64355e-007
Heightened Def Con from 1.64355e-007 +to 1.64355e-007
Heightened Def Con from 1.64355e-007 to 1.64355e-007
Heightened Def Con from 1.64355e-007 to 1.64355e-007
Heightened Def Con from 1.64355e-007 +to 1.64355e-007
Heightened Def Con from 1.64355e-007 to 1.64355e-007
Heightened Def Con from 1.64355e-007 to 1.64355e-007
Heightened Def Con from 1.64355e-007 to 1.64355e-007
Heightened Def Con from 1.64355e-007 to 1.64355e-007
Heightened Def Con from 1.64355e-007 to 1.64355e-007
Heightened Def Con from 1.64355e-007 +to 1.64355e-007
Heightened Def Con from 1.64355e-007 to 1.64355e-007

Date: Fri May 12 13:22:49 2023
Total elapsed time: 70.494 seconds.

tnom = 27
temp = 27
method = modified trap
totiter = 12333715
traniter = 12330307
tranpoints = 1387275
accept = 543068
rejected = 908982
matrix size = 36
fillins = 42
solver = Normal
Matrix Compiler1: off  1.2/0.6/[0.5]
Matrix Compiler2: 3.44 KB object code size  0.5/0.6/[0.4]

