Circuit: * C:\users\leonardo\Desktop\FSAE\inverter-simulation\inverter-spice.asc

Error on line 21 : v2 n006 0 pulse(0 4 0 0 0 0.0001 1/8000)
	 Unknown parameter "/8000"
Limiting rise time of source v2 to 1e-005
Limiting fall time of source v2 to 1e-005
Direct Newton iteration failed to find .op point.  (Use ".option noopiter" to skip.)
Starting Gmin stepping
Gmin = 10
Gmin = 1.07374
Gmin = 0.115292
Gmin = 0.0123794
Gmin = 0.00132923
Gmin = 0.000142725
Gmin = 1.5325e-005
Gmin = 1.6455e-006
Gmin = 1.76685e-007
Gmin = 1.89714e-008
vernier = 0.5
Gmin = 3.18287e-009
vernier = 0.666667
vernier = 0.333333
vernier = 0.166667
Gmin = 1.45338e-009
vernier = 0.0833333
vernier = 0.0416667
vernier = 0.0208333
Gmin = 1.2792e-009
vernier = 0.0104167
vernier = 0.00520833
vernier = 0.00260417
vernier = 0.00130208
vernier = 0.000651042
Gmin = 1.28502e-009
vernier = 0.000868055
vernier = 0.000434028
Gmin = 0
Gmin stepping succeeded in finding the operating point.

Changing Tseed to 1e-010
Changing Tseed to 1e-012
Changing Tseed to 1e-009
Changing Tseed to 1e-013
Changing Tseed to 1e-008
Changing Tseed to 1e-014
Changing Tseed to 1e-007
Changing Tseed to 1e-015
Changing Tseed to 1e-006
Heightened Def Con from 1e-006 to 1e-006
Heightened Def Con from 1e-006 +to 1e-006
Heightened Def Con from 1e-006 to 1e-006
Heightened Def Con from 1e-006 to 1e-006
Heightened Def Con from 1e-006 to 1e-006
Heightened Def Con from 1e-006 to 1e-006
Heightened Def Con from 1e-006 to 1e-006
Heightened Def Con from 1e-006 to 1e-006
Heightened Def Con from 1e-006 to 1e-006
Heightened Def Con from 1e-006 +to 1e-006
Heightened Def Con from 1e-006 to 1e-006
Heightened Def Con from 1e-006 to 1e-006
Heightened Def Con from 1e-006 to 1e-006
Heightened Def Con from 1e-006 to 1e-006
Heightened Def Con from 1e-006 to 1e-006
Heightened Def Con from 1e-006 to 1e-006
Heightened Def Con from 1e-006 to 1e-006
Heightened Def Con from 1e-006 to 1e-006
Heightened Def Con from 1e-006 to 1e-006
Heightened Def Con from 1e-006 to 1e-006
Heightened Def Con from 1e-006 to 1e-006
Heightened Def Con from 1e-006 to 1e-006
Heightened Def Con from 1e-006 to 1e-006
Heightened Def Con from 1e-006 to 1e-006
Heightened Def Con from 1e-006 to 1e-006
Heightened Def Con from 1e-006 to 1e-006
Heightened Def Con from 1e-006 to 1e-006
Heightened Def Con from 1e-006 to 1e-006
Heightened Def Con from 1e-006 to 1e-006
Heightened Def Con from 1e-006 to 1e-006
Heightened Def Con from 1e-006 to 1e-006
Heightened Def Con from 1e-006 to 1e-006
Heightened Def Con from 1e-006 to 1e-006
Heightened Def Con from 1e-006 to 1e-006
Heightened Def Con from 1e-006 to 1e-006
Heightened Def Con from 1e-006 to 1e-006
Heightened Def Con from 1e-006 to 1e-006
Heightened Def Con from 1e-006 to 1e-006
Heightened Def Con from 1e-006 to 1e-006
Heightened Def Con from 1e-006 to 1e-006
Heightened Def Con from 1e-006 +to 1e-006
Heightened Def Con from 1e-006 to 1e-006
Heightened Def Con from 1e-006 to 1e-006
Heightened Def Con from 1e-006 to 1e-006
Heightened Def Con from 1e-006 to 1e-006
Heightened Def Con from 1e-006 to 1e-006
Heightened Def Con from 1e-006 to 1e-006
Heightened Def Con from 1e-006 to 1e-006
Heightened Def Con from 1e-006 to 1e-006
Heightened Def Con from 1e-006 to 1e-006
Heightened Def Con from 1e-006 to 1e-006
Heightened Def Con from 1e-006 to 1e-006
Heightened Def Con from 1e-006 to 1e-006
Heightened Def Con from 1e-006 to 1e-006
Heightened Def Con from 1e-006 to 1e-006
Heightened Def Con from 1e-006 to 1e-006
Heightened Def Con from 1e-006 to 1e-006
Heightened Def Con from 1e-006 +to 1e-006
Heightened Def Con from 1e-006 to 1e-006
Heightened Def Con from 1e-006 +to 1e-006
Heightened Def Con from 1e-006 to 1e-006
Heightened Def Con from 1e-006 to 1e-006
Heightened Def Con from 1e-006 to 1e-006
Heightened Def Con from 1e-006 to 1e-006
Heightened Def Con from 1e-006 to 1e-006
Heightened Def Con from 1e-006 to 1e-006
Heightened Def Con from 1e-006 to 1e-006
Heightened Def Con from 1e-006 to 1e-006
Heightened Def Con from 1e-006 to 1e-006
Heightened Def Con from 1e-006 to 1e-006
Heightened Def Con from 1e-006 to 1e-006
Heightened Def Con from 1e-006 to 1e-006
Heightened Def Con from 1e-006 to 1e-006
Heightened Def Con from 1e-006 to 1e-006
Heightened Def Con from 1e-006 to 1e-006
Heightened Def Con from 1e-006 to 1e-006
Heightened Def Con from 1e-006 to 1e-006
Heightened Def Con from 1e-006 to 1e-006
Heightened Def Con from 1.00001e-006 to 1.00001e-006
Heightened Def Con from 1.00001e-006 to 1.00001e-006
Heightened Def Con from 1.00001e-006 to 1.00001e-006
Heightened Def Con from 1.00001e-006 to 1.00001e-006
Heightened Def Con from 1.00001e-006 to 1.00101e-006
Heightened Def Con from 1.00101e-006 to 1.00101e-006
Heightened Def Con from 1.00101e-006 +to 1.00101e-006
Heightened Def Con from 1.00101e-006 to 1.00101e-006
Heightened Def Con from 1.00101e-006 to 1.00101e-006
Heightened Def Con from 1.00101e-006 to 1.00101e-006
Heightened Def Con from 1.00101e-006 to 1.00101e-006
Heightened Def Con from 1.00101e-006 to 1.00101e-006
Heightened Def Con from 1.00101e-006 to 1.00101e-006
Heightened Def Con from 1.00101e-006 to 1.00101e-006
Heightened Def Con from 1.00101e-006 +to 1.00101e-006
Heightened Def Con from 1.00101e-006 to 1.00101e-006
Heightened Def Con from 1.00101e-006 to 1.00113e-006
Heightened Def Con from 1.00113e-006 to 1.00113e-006
Heightened Def Con from 1.00113e-006 to 1.00113e-006
Heightened Def Con from 1.00113e-006 to 1.00113e-006
Heightened Def Con from 1.00113e-006 to 1.00113e-006
Heightened Def Con from 1.00113e-006 to 1.00113e-006
Heightened Def Con from 1.00113e-006 to 1.00113e-006
Heightened Def Con from 1.00113e-006 to 1.00113e-006
Heightened Def Con from 1.00113e-006 to 1.00113e-006
Heightened Def Con from 1.00113e-006 to 1.00113e-006
Heightened Def Con from 1.00113e-006 to 1.00113e-006
Heightened Def Con from 1.00113e-006 to 1.00113e-006
Heightened Def Con from 1.00113e-006 to 1.00113e-006
Heightened Def Con from 1.00113e-006 to 1.00113e-006
Heightened Def Con from 1.00113e-006 to 1.00113e-006
Heightened Def Con from 1.00113e-006 to 1.00113e-006
Heightened Def Con from 1.00113e-006 to 1.00113e-006
Heightened Def Con from 1.00113e-006 to 1.00113e-006
Heightened Def Con from 1.00113e-006 to 1.00113e-006
Heightened Def Con from 1.00113e-006 to 1.00113e-006
Heightened Def Con from 1.00113e-006 to 1.00113e-006
Heightened Def Con from 1.00113e-006 to 1.00113e-006
Heightened Def Con from 1.00113e-006 to 1.00113e-006
Heightened Def Con from 1.00113e-006 to 1.00113e-006
Heightened Def Con from 1.00113e-006 to 1.00113e-006
Heightened Def Con from 1.00113e-006 to 1.00113e-006
Heightened Def Con from 1.00113e-006 to 1.00113e-006
Heightened Def Con from 1.00113e-006 to 1.00113e-006
Heightened Def Con from 1.00113e-006 to 1.00113e-006
Heightened Def Con from 1.00113e-006 to 1.00113e-006
Heightened Def Con from 1.00113e-006 to 1.00113e-006
Heightened Def Con from 1.00113e-006 to 1.00113e-006
Heightened Def Con from 1.00113e-006 to 1.00113e-006
Heightened Def Con from 1.00113e-006 to 1.00113e-006
Heightened Def Con from 1.00113e-006 to 1.00113e-006
Heightened Def Con from 1.00113e-006 to 1.00113e-006
Heightened Def Con from 1.00113e-006 to 1.00114e-006
Heightened Def Con from 1.00114e-006 to 1.00114e-006
Heightened Def Con from 1.00114e-006 to 1.00114e-006
Heightened Def Con from 1.00114e-006 to 1.00114e-006
Heightened Def Con from 1.00114e-006 to 1.00114e-006
Heightened Def Con from 1.00114e-006 to 1.00114e-006
Heightened Def Con from 1.00114e-006 to 1.00114e-006
Heightened Def Con from 1.00114e-006 to 1.00114e-006
Heightened Def Con from 1.00114e-006 to 1.00114e-006
Heightened Def Con from 1.00114e-006 to 1.00114e-006
Heightened Def Con from 1.00114e-006 to 1.00114e-006
Heightened Def Con from 1.00114e-006 to 1.00114e-006
Heightened Def Con from 1.00114e-006 to 1.00114e-006
Heightened Def Con from 1.00114e-006 to 1.00114e-006
Heightened Def Con from 1.00114e-006 to 1.00114e-006
Heightened Def Con from 1.00114e-006 to 1.00114e-006
Heightened Def Con from 1.00114e-006 to 1.00114e-006
Heightened Def Con from 1.00114e-006 to 1.00114e-006
Heightened Def Con from 1.00114e-006 to 1.00114e-006
Heightened Def Con from 1.00114e-006 to 1.00114e-006
Heightened Def Con from 1.00114e-006 to 1.00114e-006
Heightened Def Con from 1.00114e-006 to 1.00114e-006
Heightened Def Con from 1.00114e-006 +to 1.00114e-006
Heightened Def Con from 1.00114e-006 to 1.00114e-006
Heightened Def Con from 1.00114e-006 to 1.00114e-006
Heightened Def Con from 1.00114e-006 to 1.00114e-006
Heightened Def Con from 1.00114e-006 to 1.00114e-006
Heightened Def Con from 1.00114e-006 to 1.00114e-006
Heightened Def Con from 1.00114e-006 to 1.00114e-006
Heightened Def Con from 1.00114e-006 +to 1.00114e-006
Heightened Def Con from 1.00114e-006 to 1.00114e-006
Heightened Def Con from 1.00114e-006 to 1.00114e-006
Heightened Def Con from 1.00114e-006 to 1.00114e-006
Heightened Def Con from 1.00114e-006 to 1.00114e-006
Heightened Def Con from 1.00114e-006 to 1.00114e-006
Heightened Def Con from 1.00114e-006 to 1.00114e-006
Heightened Def Con from 1.00114e-006 to 1.00114e-006
Heightened Def Con from 1.00114e-006 to 1.00114e-006
Heightened Def Con from 1.00114e-006 to 1.00126e-006
Heightened Def Con from 1.00126e-006 +to 1.00126e-006
Heightened Def Con from 1.00126e-006 to 1.00126e-006
Heightened Def Con from 1.00126e-006 to 1.00126e-006
Heightened Def Con from 1.00126e-006 to 1.00126e-006
Heightened Def Con from 1.00126e-006 +to 1.00126e-006
Heightened Def Con from 1.00126e-006 +to 1.00126e-006
Heightened Def Con from 1.00126e-006 to 1.00126e-006
Heightened Def Con from 1.00126e-006 to 1.00126e-006
Heightened Def Con from 1.00126e-006 to 1.00126e-006
Heightened Def Con from 1.00126e-006 to 1.00126e-006
Heightened Def Con from 1.00126e-006 to 1.00126e-006
Heightened Def Con from 1.00126e-006 to 1.00126e-006
Heightened Def Con from 1.00126e-006 to 1.00126e-006
Heightened Def Con from 1.00126e-006 to 1.00126e-006
Heightened Def Con from 1.00126e-006 to 1.00126e-006
Heightened Def Con from 1.00126e-006 to 1.00126e-006
Heightened Def Con from 1.00126e-006 to 1.00126e-006
Heightened Def Con from 1.00127e-006 to 1.00127e-006
Heightened Def Con from 1.00127e-006 to 1.00127e-006
Heightened Def Con from 1.00127e-006 to 1.00127e-006
Heightened Def Con from 1.00127e-006 to 1.00127e-006
Heightened Def Con from 1.00127e-006 to 1.00127e-006
Heightened Def Con from 1.00127e-006 to 1.00127e-006
Heightened Def Con from 1.00127e-006 to 1.00127e-006
Heightened Def Con from 1.00127e-006 to 1.00127e-006
Heightened Def Con from 1.00127e-006 to 1.00127e-006
Heightened Def Con from 1.00127e-006 to 1.00127e-006
Heightened Def Con from 1.00127e-006 to 1.00127e-006
Heightened Def Con from 1.00127e-006 to 1.00127e-006
Heightened Def Con from 1.00127e-006 to 1.00127e-006
Heightened Def Con from 1.00127e-006 to 1.00127e-006
Heightened Def Con from 1.00127e-006 to 1.00127e-006
Heightened Def Con from 1.00127e-006 to 1.00127e-006
Heightened Def Con from 1.00127e-006 to 1.00127e-006
Heightened Def Con from 1.00127e-006 to 1.00127e-006
Heightened Def Con from 1.00127e-006 to 1.00127e-006
Heightened Def Con from 1.00127e-006 to 1.00127e-006
Heightened Def Con from 1.00127e-006 to 1.00127e-006
Heightened Def Con from 1.00127e-006 to 1.00127e-006
Heightened Def Con from 1.00127e-006 to 1.00127e-006
Heightened Def Con from 1.00127e-006 +to 1.00127e-006
Heightened Def Con from 1.00127e-006 to 1.00127e-006
Heightened Def Con from 1.00127e-006 to 1.00127e-006
Heightened Def Con from 1.00127e-006 to 1.00127e-006
Heightened Def Con from 1.00127e-006 to 1.00127e-006
Heightened Def Con from 1.00127e-006 to 1.00127e-006
Heightened Def Con from 1.00127e-006 to 1.00127e-006
Heightened Def Con from 1.00127e-006 to 1.00127e-006
Heightened Def Con from 1.00127e-006 to 1.00127e-006
Heightened Def Con from 1.00127e-006 to 1.00127e-006
Heightened Def Con from 1.00127e-006 to 1.00127e-006
Heightened Def Con from 1.00127e-006 to 1.00127e-006
Heightened Def Con from 1.00127e-006 to 1.00127e-006
Heightened Def Con from 1.00127e-006 to 1.00127e-006
Heightened Def Con from 1.00127e-006 to 1.00127e-006
Heightened Def Con from 1.00127e-006 to 1.00127e-006
Heightened Def Con from 1.00127e-006 to 1.00127e-006
Heightened Def Con from 1.00127e-006 to 1.00127e-006
Heightened Def Con from 1.00127e-006 to 1.00127e-006
Heightened Def Con from 1.00127e-006 to 1.00127e-006
Heightened Def Con from 1.00127e-006 to 1.00127e-006
Heightened Def Con from 1.00127e-006 to 1.00127e-006
Heightened Def Con from 1.00127e-006 to 1.00127e-006
Heightened Def Con from 1.00127e-006 to 1.00127e-006
Heightened Def Con from 1.00127e-006 to 1.00127e-006
Heightened Def Con from 1.00127e-006 to 1.00127e-006
Heightened Def Con from 1.00127e-006 to 1.00127e-006
Heightened Def Con from 1.00127e-006 +to 1.00127e-006
Heightened Def Con from 1.00127e-006 to 1.00127e-006
Heightened Def Con from 1.00127e-006 to 1.00127e-006
Heightened Def Con from 1.00127e-006 +to 1.00127e-006
Heightened Def Con from 1.00127e-006 to 1.00127e-006
Heightened Def Con from 1.00127e-006 to 1.00127e-006
Heightened Def Con from 1.00127e-006 to 1.00127e-006
Heightened Def Con from 1.00127e-006 to 1.00127e-006
Heightened Def Con from 1.00127e-006 to 1.00127e-006
Heightened Def Con from 1.00127e-006 to 1.00127e-006
Heightened Def Con from 1.00127e-006 to 1.00127e-006
Heightened Def Con from 1.00127e-006 to 1.00127e-006
Heightened Def Con from 1.00127e-006 to 1.00127e-006
Heightened Def Con from 1.00127e-006 to 1.00127e-006
Heightened Def Con from 1.00127e-006 to 1.00127e-006
Heightened Def Con from 1.00127e-006 to 1.00127e-006
Heightened Def Con from 1.00127e-006 to 1.00127e-006
Heightened Def Con from 1.00127e-006 to 1.00127e-006
Heightened Def Con from 1.00127e-006 to 1.00127e-006
Heightened Def Con from 1.00127e-006 to 1.00127e-006
Heightened Def Con from 1.00127e-006 to 1.00127e-006
Heightened Def Con from 1.00127e-006 to 1.00127e-006
Heightened Def Con from 1.00127e-006 to 1.00127e-006
Heightened Def Con from 1.00127e-006 to 1.00127e-006
Heightened Def Con from 1.00127e-006 to 1.00127e-006
Heightened Def Con from 1.00127e-006 to 1.00127e-006
Heightened Def Con from 1.00127e-006 to 1.00127e-006
Heightened Def Con from 1.00127e-006 to 1.00127e-006
Heightened Def Con from 1.00127e-006 to 1.00127e-006
Heightened Def Con from 1.00127e-006 to 1.00127e-006
Heightened Def Con from 1.00127e-006 to 1.00127e-006
Heightened Def Con from 1.00127e-006 to 1.00127e-006
Heightened Def Con from 1.00127e-006 to 1.00127e-006
Heightened Def Con from 1.00127e-006 to 1.00127e-006
Heightened Def Con from 1.00127e-006 to 1.00127e-006
Heightened Def Con from 1.00127e-006 to 1.00127e-006
Heightened Def Con from 1.00127e-006 to 1.00127e-006
Heightened Def Con from 1.00127e-006 to 1.00127e-006
Heightened Def Con from 1.00127e-006 to 1.00127e-006
Heightened Def Con from 1.00127e-006 to 1.00127e-006
Heightened Def Con from 1.00127e-006 to 1.00128e-006
Heightened Def Con from 1.00128e-006 to 1.00128e-006
Heightened Def Con from 1.00128e-006 to 1.00128e-006
Heightened Def Con from 1.00128e-006 to 1.00128e-006
Heightened Def Con from 1.00128e-006 to 1.00128e-006
Heightened Def Con from 1.00128e-006 to 1.00128e-006
Heightened Def Con from 1.00128e-006 to 1.00128e-006
Heightened Def Con from 1.00128e-006 to 1.00128e-006
Heightened Def Con from 1.00128e-006 to 1.00128e-006
Heightened Def Con from 1.00128e-006 to 1.00128e-006
Heightened Def Con from 1.00128e-006 to 1.00128e-006
Heightened Def Con from 1.00128e-006 to 1.00128e-006
Heightened Def Con from 1.00128e-006 to 1.00128e-006
Heightened Def Con from 1.00128e-006 to 1.00128e-006
Heightened Def Con from 1.00128e-006 to 1.00128e-006
Heightened Def Con from 1.00128e-006 +to 1.00128e-006
Heightened Def Con from 1.00128e-006 to 1.00128e-006
Heightened Def Con from 1.00128e-006 to 1.00128e-006
Heightened Def Con from 1.00128e-006 +to 1.00128e-006
Heightened Def Con from 1.00128e-006 to 1.00128e-006
Heightened Def Con from 1.00128e-006 +to 1.00128e-006
Heightened Def Con from 1.00128e-006 to 1.00128e-006
Heightened Def Con from 1.00128e-006 to 1.00128e-006
Heightened Def Con from 1.00128e-006 to 1.00128e-006
Heightened Def Con from 1.00128e-006 to 1.00128e-006
Heightened Def Con from 1.00128e-006 to 1.00128e-006
Heightened Def Con from 1.00128e-006 to 1.00128e-006
Heightened Def Con from 1.00128e-006 to 1.00128e-006
Heightened Def Con from 1.00128e-006 to 1.00128e-006
Heightened Def Con from 1.00128e-006 to 1.00128e-006
Heightened Def Con from 1.00128e-006 to 1.00128e-006
Heightened Def Con from 1.00128e-006 to 1.00128e-006
Heightened Def Con from 1.00128e-006 +to 1.00128e-006
Heightened Def Con from 1.00128e-006 to 1.00128e-006
Heightened Def Con from 1.00128e-006 to 1.00128e-006
Heightened Def Con from 1.00128e-006 to 1.00128e-006
Heightened Def Con from 1.00128e-006 to 1.00128e-006
Heightened Def Con from 1.00128e-006 to 1.00128e-006
Heightened Def Con from 1.00128e-006 to 1.00128e-006
Heightened Def Con from 1.00128e-006 to 1.00128e-006
Heightened Def Con from 1.00128e-006 to 1.00128e-006
Heightened Def Con from 1.00128e-006 to 1.00128e-006
Heightened Def Con from 1.00128e-006 to 1.00128e-006
Heightened Def Con from 1.00128e-006 to 1.00128e-006
Heightened Def Con from 1.00128e-006 to 1.00128e-006
Heightened Def Con from 1.00128e-006 to 1.00128e-006
Heightened Def Con from 1.00128e-006 to 1.00128e-006
Heightened Def Con from 1.00128e-006 to 1.00128e-006
Heightened Def Con from 1.00128e-006 to 1.00128e-006
Heightened Def Con from 1.00128e-006 to 1.00128e-006
Heightened Def Con from 1.00128e-006 to 1.00128e-006
Heightened Def Con from 1.00128e-006 to 1.00128e-006
Heightened Def Con from 1.00128e-006 to 1.00128e-006
Heightened Def Con from 1.00128e-006 to 1.00128e-006
Heightened Def Con from 1.00128e-006 to 1.00128e-006
Heightened Def Con from 1.00128e-006 to 1.00128e-006
Heightened Def Con from 1.00128e-006 to 1.00128e-006
Heightened Def Con from 1.00128e-006 to 1.00128e-006
Heightened Def Con from 1.00128e-006 to 1.00128e-006
Heightened Def Con from 1.00128e-006 to 1.00128e-006
Heightened Def Con from 1.00128e-006 to 1.00128e-006
Heightened Def Con from 1.00128e-006 +to 1.00128e-006
Heightened Def Con from 1.00128e-006 to 1.00128e-006
Heightened Def Con from 1.00128e-006 to 1.00128e-006
Heightened Def Con from 1.00128e-006 to 1.00128e-006
Heightened Def Con from 1.00128e-006 to 1.00128e-006
Heightened Def Con from 1.00128e-006 to 1.00128e-006
Heightened Def Con from 1.00128e-006 to 1.00128e-006
Heightened Def Con from 1.00128e-006 to 1.00128e-006
Heightened Def Con from 1.00128e-006 to 1.00128e-006
Heightened Def Con from 1.00128e-006 to 1.00128e-006
Heightened Def Con from 1.00128e-006 to 1.00128e-006
Heightened Def Con from 1.00128e-006 to 1.00128e-006
Heightened Def Con from 1.00128e-006 to 1.00128e-006
Heightened Def Con from 1.00128e-006 to 1.00128e-006
Heightened Def Con from 1.00128e-006 to 1.00128e-006
Heightened Def Con from 1.00128e-006 to 1.00128e-006
Heightened Def Con from 1.00128e-006 to 1.00128e-006
Heightened Def Con from 1.00128e-006 to 1.00128e-006
Heightened Def Con from 1.00128e-006 to 1.00128e-006
Heightened Def Con from 1.00128e-006 to 1.00128e-006
Heightened Def Con from 1.00128e-006 to 1.00128e-006
Heightened Def Con from 1.00128e-006 to 1.00128e-006
Heightened Def Con from 1.00128e-006 to 1.00128e-006
Heightened Def Con from 1.00128e-006 to 1.00128e-006
Heightened Def Con from 1.00128e-006 to 1.00128e-006
Heightened Def Con from 1.00128e-006 to 1.00128e-006
Heightened Def Con from 1.00128e-006 to 1.00128e-006
Heightened Def Con from 1.00128e-006 to 1.00128e-006
Heightened Def Con from 1.00128e-006 to 1.00128e-006
Heightened Def Con from 1.00128e-006 to 1.00128e-006
Heightened Def Con from 1.00128e-006 to 1.00128e-006
Heightened Def Con from 1.00128e-006 to 1.00128e-006
Heightened Def Con from 1.00128e-006 to 1.00128e-006
Heightened Def Con from 1.00128e-006 to 1.00128e-006
Heightened Def Con from 1.00128e-006 to 1.00128e-006
Heightened Def Con from 1.00128e-006 to 1.00128e-006
Heightened Def Con from 1.00128e-006 to 1.00128e-006
Heightened Def Con from 1.00128e-006 to 1.00128e-006
Heightened Def Con from 1.00128e-006 to 1.00128e-006
Heightened Def Con from 1.00128e-006 to 1.00128e-006
Heightened Def Con from 1.00128e-006 to 1.00128e-006
Heightened Def Con from 1.00128e-006 to 1.00128e-006
Heightened Def Con from 1.00128e-006 to 1.00128e-006
Heightened Def Con from 1.00128e-006 +to 1.00129e-006
Heightened Def Con from 1.00129e-006 to 1.00129e-006
Heightened Def Con from 1.00129e-006 to 1.00129e-006
Heightened Def Con from 1.00129e-006 to 1.00129e-006
Heightened Def Con from 1.00129e-006 to 1.00129e-006
Heightened Def Con from 1.00129e-006 to 1.00129e-006
Heightened Def Con from 1.00129e-006 to 1.00129e-006
Heightened Def Con from 1.00129e-006 to 1.00129e-006
Heightened Def Con from 1.00129e-006 to 1.00129e-006
Heightened Def Con from 1.00129e-006 to 1.00129e-006
Heightened Def Con from 1.00129e-006 to 1.00129e-006
Heightened Def Con from 1.00129e-006 to 1.00129e-006
Heightened Def Con from 1.00129e-006 to 1.00129e-006
Heightened Def Con from 1.00129e-006 to 1.00129e-006
Heightened Def Con from 1.00129e-006 to 1.00129e-006
Heightened Def Con from 1.00129e-006 to 1.00129e-006
Heightened Def Con from 1.00129e-006 to 1.00129e-006
Heightened Def Con from 1.00129e-006 to 1.00129e-006
Heightened Def Con from 1.00129e-006 to 1.00129e-006
Heightened Def Con from 1.00129e-006 to 1.00129e-006
Heightened Def Con from 1.00129e-006 to 1.00129e-006
Heightened Def Con from 1.00129e-006 to 1.00129e-006
Heightened Def Con from 1.00129e-006 +to 1.00129e-006
Heightened Def Con from 1.00129e-006 to 1.00129e-006
Heightened Def Con from 1.00129e-006 to 1.00129e-006
Heightened Def Con from 1.00129e-006 +to 1.00129e-006
Heightened Def Con from 1.00129e-006 to 1.00129e-006
Heightened Def Con from 1.00129e-006 to 1.00129e-006
Heightened Def Con from 1.00129e-006 to 1.0013e-006
Heightened Def Con from 1.0013e-006 +to 1.0013e-006
Heightened Def Con from 1.0013e-006 to 1.0013e-006
Heightened Def Con from 1.0013e-006 to 1.0013e-006
Heightened Def Con from 1.0013e-006 to 1.0013e-006
Heightened Def Con from 1.0013e-006 to 1.0013e-006
Heightened Def Con from 1.0013e-006 to 1.0013e-006
Heightened Def Con from 1.0013e-006 to 1.0013e-006
Heightened Def Con from 1.0013e-006 to 1.0013e-006
Heightened Def Con from 1.0013e-006 to 1.0013e-006
Heightened Def Con from 1.0013e-006 to 1.0013e-006
Heightened Def Con from 1.0013e-006 to 1.0013e-006
Heightened Def Con from 1.0013e-006 to 1.0013e-006
Heightened Def Con from 1.0013e-006 to 1.0013e-006
Heightened Def Con from 1.0013e-006 to 1.0013e-006
Heightened Def Con from 1.0013e-006 to 1.0013e-006
Heightened Def Con from 1.0013e-006 to 1.0013e-006
Heightened Def Con from 1.0013e-006 to 1.0013e-006
Heightened Def Con from 1.0013e-006 to 1.0013e-006
Heightened Def Con from 1.0013e-006 to 1.0013e-006
Heightened Def Con from 1.0013e-006 to 1.0013e-006
Heightened Def Con from 1.0013e-006 to 1.0013e-006
Heightened Def Con from 1.0013e-006 to 1.0013e-006
Heightened Def Con from 1.0013e-006 to 1.0013e-006
Heightened Def Con from 1.0013e-006 to 1.0013e-006
Heightened Def Con from 1.0013e-006 to 1.0013e-006
Heightened Def Con from 1.0013e-006 to 1.0013e-006
Heightened Def Con from 1.0013e-006 to 1.0013e-006
Heightened Def Con from 1.0013e-006 to 1.0013e-006
Heightened Def Con from 1.0013e-006 to 1.0013e-006
Heightened Def Con from 1.0013e-006 to 1.0013e-006
Heightened Def Con from 1.0013e-006 to 1.0013e-006
Heightened Def Con from 1.0013e-006 to 1.0013e-006
Heightened Def Con from 1.0013e-006 to 1.0013e-006
Heightened Def Con from 1.0013e-006 to 1.0013e-006
Heightened Def Con from 1.0013e-006 to 1.0013e-006
Heightened Def Con from 1.0013e-006 to 1.0013e-006
Heightened Def Con from 1.0013e-006 to 1.0013e-006
Heightened Def Con from 1.0013e-006 to 1.0013e-006
Heightened Def Con from 1.0013e-006 +to 1.0013e-006
Heightened Def Con from 1.0013e-006 +to 1.0013e-006
Heightened Def Con from 1.0013e-006 to 1.00131e-006
Heightened Def Con from 1.00131e-006 to 1.00131e-006
Heightened Def Con from 1.00131e-006 to 1.00131e-006
Heightened Def Con from 1.00131e-006 to 1.00131e-006
Heightened Def Con from 1.00131e-006 to 1.00131e-006
Heightened Def Con from 1.00131e-006 to 1.00131e-006
Heightened Def Con from 1.00131e-006 +to 1.00131e-006
Heightened Def Con from 1.00131e-006 to 1.00131e-006
Heightened Def Con from 1.00131e-006 to 1.00131e-006
Heightened Def Con from 1.00131e-006 to 1.00131e-006
Heightened Def Con from 1.00131e-006 to 1.00131e-006
Heightened Def Con from 1.00131e-006 to 1.00131e-006
Heightened Def Con from 1.00131e-006 +to 1.00131e-006
Heightened Def Con from 1.00131e-006 to 1.00131e-006
Heightened Def Con from 1.00131e-006 to 1.00131e-006
Heightened Def Con from 1.00131e-006 to 1.00143e-006
Heightened Def Con from 1.00143e-006 to 1.00143e-006
Heightened Def Con from 1.00143e-006 +to 1.00143e-006
Heightened Def Con from 1.00143e-006 to 1.00143e-006
Heightened Def Con from 1.00143e-006 +to 1.00143e-006
Heightened Def Con from 1.00143e-006 to 1.00143e-006
Heightened Def Con from 1.00143e-006 +to 1.00143e-006
Heightened Def Con from 1.00143e-006 to 1.00143e-006
Heightened Def Con from 1.00143e-006 to 1.00143e-006
Heightened Def Con from 1.00143e-006 to 1.00143e-006
Heightened Def Con from 1.00143e-006 to 1.00143e-006
Heightened Def Con from 1.00143e-006 to 1.00143e-006
Heightened Def Con from 1.00143e-006 to 1.00143e-006
Heightened Def Con from 1.00143e-006 to 1.00143e-006
Heightened Def Con from 1.00143e-006 to 1.00143e-006
Heightened Def Con from 1.00143e-006 to 1.00143e-006
Heightened Def Con from 1.00143e-006 +to 1.00143e-006
Heightened Def Con from 1.00143e-006 to 1.00143e-006
Heightened Def Con from 1.00143e-006 +to 1.00143e-006
Heightened Def Con from 1.00143e-006 to 1.00146e-006
Heightened Def Con from 1.00146e-006 to 1.00146e-006
Heightened Def Con from 1.00146e-006 to 1.00146e-006
Heightened Def Con from 1.00146e-006 to 1.00146e-006
Heightened Def Con from 1.00146e-006 to 1.00146e-006
Heightened Def Con from 1.00146e-006 to 1.00146e-006
Heightened Def Con from 1.00146e-006 to 1.00146e-006
Heightened Def Con from 1.00146e-006 to 1.00146e-006
Heightened Def Con from 1.00146e-006 to 1.00146e-006
Heightened Def Con from 1.00146e-006 to 1.00146e-006
Heightened Def Con from 1.00146e-006 to 1.00146e-006
Heightened Def Con from 1.00146e-006 to 1.00146e-006
Heightened Def Con from 1.00146e-006 to 1.00146e-006
Heightened Def Con from 1.00146e-006 to 1.00146e-006
Heightened Def Con from 1.00146e-006 to 1.00146e-006
Heightened Def Con from 1.00146e-006 to 1.00146e-006
Heightened Def Con from 1.00146e-006 to 1.00146e-006
Heightened Def Con from 1.00146e-006 +to 1.00146e-006
Heightened Def Con from 1.00146e-006 to 1.00146e-006
Heightened Def Con from 1.00146e-006 to 1.00146e-006
Heightened Def Con from 1.00146e-006 to 1.00146e-006
Heightened Def Con from 1.00146e-006 +to 1.00146e-006
Heightened Def Con from 1.00146e-006 to 1.00146e-006
Heightened Def Con from 1.00147e-006 to 1.00147e-006
Heightened Def Con from 1.00147e-006 to 1.00147e-006
Heightened Def Con from 1.00147e-006 to 1.00147e-006
Heightened Def Con from 1.00147e-006 to 1.00147e-006
Heightened Def Con from 1.00147e-006 to 1.00147e-006
Heightened Def Con from 1.00147e-006 to 1.00147e-006
Heightened Def Con from 1.00147e-006 +to 1.00147e-006
Heightened Def Con from 1.00147e-006 to 1.00147e-006
Heightened Def Con from 1.00147e-006 to 1.00147e-006
Heightened Def Con from 1.00147e-006 to 1.00147e-006
Heightened Def Con from 1.00147e-006 to 1.00147e-006
Heightened Def Con from 1.00147e-006 to 1.00147e-006
Heightened Def Con from 1.00147e-006 to 1.00147e-006
Heightened Def Con from 1.00147e-006 to 1.00147e-006
Heightened Def Con from 1.00147e-006 to 1.00147e-006
Heightened Def Con from 1.00147e-006 to 1.00147e-006
Heightened Def Con from 1.00147e-006 to 1.00147e-006
Heightened Def Con from 1.00147e-006 to 1.00147e-006
Heightened Def Con from 1.00147e-006 ++to 1.00147e-006
Heightened Def Con from 1.00147e-006 to 1.00147e-006
Heightened Def Con from 1.00147e-006 to 1.00147e-006
Heightened Def Con from 1.00147e-006 to 1.00147e-006
Heightened Def Con from 1.00147e-006 to 1.00147e-006
Heightened Def Con from 1.00147e-006 to 1.00147e-006
Heightened Def Con from 1.00147e-006 to 1.00147e-006
Heightened Def Con from 1.00147e-006 to 1.00147e-006
Heightened Def Con from 1.00147e-006 to 1.00147e-006
Heightened Def Con from 1.00147e-006 to 1.00147e-006
Heightened Def Con from 1.00147e-006 ++to 1.00147e-006
Heightened Def Con from 1.00147e-006 to 1.00147e-006
Heightened Def Con from 1.00147e-006 to 1.00147e-006
Heightened Def Con from 1.00147e-006 to 1.00147e-006
Heightened Def Con from 1.00147e-006 to 1.00147e-006
Heightened Def Con from 1.00147e-006 to 1.00147e-006
Heightened Def Con from 1.00147e-006 to 1.00147e-006
Heightened Def Con from 1.00147e-006 to 1.00147e-006
Heightened Def Con from 1.00147e-006 to 1.00147e-006
Heightened Def Con from 1.00147e-006 to 1.00147e-006
Heightened Def Con from 1.00147e-006 to 1.00147e-006
Heightened Def Con from 1.00147e-006 to 1.00147e-006
Heightened Def Con from 1.00147e-006 to 1.00147e-006
Heightened Def Con from 1.00147e-006 to 1.00147e-006
Heightened Def Con from 1.00147e-006 to 1.00147e-006
Heightened Def Con from 1.00147e-006 to 1.00147e-006
Heightened Def Con from 1.00147e-006 to 1.00147e-006
Heightened Def Con from 1.00147e-006 to 1.00147e-006
Heightened Def Con from 1.00147e-006 to 1.00147e-006
Heightened Def Con from 1.00147e-006 to 1.00149e-006
Heightened Def Con from 1.00149e-006 to 1.00149e-006
Heightened Def Con from 1.00149e-006 to 1.00149e-006
Heightened Def Con from 1.00149e-006 to 1.00149e-006
Heightened Def Con from 1.00149e-006 to 1.00149e-006
Heightened Def Con from 1.00149e-006 to 1.00149e-006
Heightened Def Con from 1.00149e-006 to 1.00149e-006
Heightened Def Con from 1.00149e-006 to 1.00149e-006
Heightened Def Con from 1.00149e-006 to 1.00149e-006
Heightened Def Con from 1.00149e-006 to 1.00149e-006
Heightened Def Con from 1.00149e-006 to 1.00149e-006
Heightened Def Con from 1.00149e-006 to 1.00149e-006
Heightened Def Con from 1.00149e-006 to 1.00149e-006
Heightened Def Con from 1.00149e-006 to 1.00149e-006
Heightened Def Con from 1.00149e-006 to 1.00149e-006
Heightened Def Con from 1.00149e-006 to 1.00149e-006
Heightened Def Con from 1.00149e-006 to 1.00149e-006
Heightened Def Con from 1.00149e-006 to 1.00149e-006
Heightened Def Con from 1.00149e-006 to 1.00149e-006
Heightened Def Con from 1.00149e-006 to 1.00149e-006
Heightened Def Con from 1.00149e-006 to 1.00149e-006
Heightened Def Con from 1.00149e-006 to 1.00149e-006
Heightened Def Con from 1.00149e-006 +to 1.00149e-006
Heightened Def Con from 1.00149e-006 to 1.00149e-006
Heightened Def Con from 1.00149e-006 to 1.00149e-006
Heightened Def Con from 1.00149e-006 to 1.00149e-006
Heightened Def Con from 1.00149e-006 to 1.00149e-006
Heightened Def Con from 1.00149e-006 to 1.00149e-006
Heightened Def Con from 1.00149e-006 to 1.00149e-006
Heightened Def Con from 1.00149e-006 to 1.00149e-006
Heightened Def Con from 1.00149e-006 to 1.00149e-006
Heightened Def Con from 1.00149e-006 to 1.00149e-006
Heightened Def Con from 1.00149e-006 to 1.00149e-006
Heightened Def Con from 1.00149e-006 to 1.00149e-006
Heightened Def Con from 1.00149e-006 to 1.00149e-006
Heightened Def Con from 1.00149e-006 to 1.00149e-006
Heightened Def Con from 1.00149e-006 to 1.00149e-006
Heightened Def Con from 1.00149e-006 to 1.00149e-006
Heightened Def Con from 1.00149e-006 to 1.00149e-006
Heightened Def Con from 1.00149e-006 to 1.00149e-006
Heightened Def Con from 1.00149e-006 to 1.00149e-006
Heightened Def Con from 1.00149e-006 to 1.00149e-006
Heightened Def Con from 1.00149e-006 to 1.00149e-006
Heightened Def Con from 1.00149e-006 to 1.00149e-006
Heightened Def Con from 1.00149e-006 to 1.00149e-006
Heightened Def Con from 1.00149e-006 to 1.00149e-006
Heightened Def Con from 1.00149e-006 to 1.00149e-006
Heightened Def Con from 1.00149e-006 to 1.00149e-006
Heightened Def Con from 1.00149e-006 to 1.00149e-006
Heightened Def Con from 1.00149e-006 to 1.00149e-006
Heightened Def Con from 1.00149e-006 to 1.00149e-006
Heightened Def Con from 1.00149e-006 to 1.00149e-006
Heightened Def Con from 1.00149e-006 to 1.00149e-006
Heightened Def Con from 1.00149e-006 to 1.00149e-006
Heightened Def Con from 1.00149e-006 to 1.00149e-006
Heightened Def Con from 1.00149e-006 to 1.00149e-006
Heightened Def Con from 1.00149e-006 +to 1.00149e-006
Heightened Def Con from 1.00149e-006 to 1.00149e-006
Heightened Def Con from 1.00149e-006 to 1.00149e-006
Heightened Def Con from 1.00149e-006 to 1.00149e-006
Heightened Def Con from 1.00149e-006 +to 1.00149e-006
Heightened Def Con from 1.00149e-006 +to 1.00149e-006
Heightened Def Con from 1.00149e-006 to 1.00149e-006
Heightened Def Con from 1.00149e-006 +to 1.00149e-006
Heightened Def Con from 1.00149e-006 to 1.00149e-006
Heightened Def Con from 1.00149e-006 to 1.00149e-006
Heightened Def Con from 1.00149e-006 +to 1.00149e-006
Heightened Def Con from 1.00149e-006 to 1.00149e-006
Heightened Def Con from 1.00149e-006 to 1.00149e-006
Heightened Def Con from 1.00149e-006 to 1.00149e-006
Heightened Def Con from 1.00149e-006 to 1.00149e-006
Heightened Def Con from 1.00149e-006 to 1.00149e-006
Heightened Def Con from 1.00149e-006 to 1.00149e-006
Heightened Def Con from 1.00149e-006 to 1.00149e-006
Heightened Def Con from 1.00149e-006 to 1.00149e-006
Heightened Def Con from 1.00149e-006 to 1.00149e-006
Heightened Def Con from 1.00149e-006 to 1.00149e-006
Heightened Def Con from 1.00149e-006 to 1.00149e-006
Heightened Def Con from 1.00149e-006 to 1.00149e-006
Heightened Def Con from 1.00149e-006 to 1.00149e-006
Heightened Def Con from 1.00149e-006 to 1.00149e-006
Heightened Def Con from 1.00149e-006 to 1.00149e-006
Heightened Def Con from 1.00149e-006 to 1.00149e-006
Heightened Def Con from 1.00149e-006 to 1.00149e-006
Heightened Def Con from 1.00149e-006 to 1.00149e-006
Heightened Def Con from 1.00149e-006 to 1.00149e-006
Heightened Def Con from 1.00149e-006 to 1.00149e-006
Heightened Def Con from 1.00149e-006 to 1.00149e-006
Heightened Def Con from 1.00149e-006 to 1.00149e-006
Heightened Def Con from 1.00149e-006 to 1.00149e-006
Heightened Def Con from 1.00149e-006 to 1.00149e-006
Heightened Def Con from 1.00149e-006 to 1.00149e-006
Heightened Def Con from 1.00149e-006 to 1.00149e-006
Heightened Def Con from 1.00149e-006 to 1.00149e-006
Heightened Def Con from 1.00149e-006 to 1.00149e-006
Heightened Def Con from 1.00149e-006 to 1.00149e-006
Heightened Def Con from 1.00149e-006 to 1.00149e-006
Heightened Def Con from 1.00149e-006 to 1.00149e-006
Heightened Def Con from 1.00149e-006 to 1.00149e-006
Heightened Def Con from 1.00149e-006 to 1.00149e-006
Heightened Def Con from 1.00149e-006 to 1.00149e-006
Heightened Def Con from 1.00149e-006 +to 1.00149e-006
Heightened Def Con from 1.00149e-006 to 1.00149e-006
Heightened Def Con from 1.00149e-006 to 1.00149e-006
Heightened Def Con from 1.00149e-006 to 1.00149e-006
Heightened Def Con from 1.00149e-006 to 1.00149e-006
Heightened Def Con from 1.00149e-006 to 1.00149e-006
Heightened Def Con from 1.00149e-006 to 1.00149e-006
Heightened Def Con from 1.00149e-006 to 1.00149e-006
Heightened Def Con from 1.00149e-006 to 1.00149e-006
Heightened Def Con from 1.00149e-006 to 1.00149e-006
Heightened Def Con from 1.00149e-006 to 1.00149e-006
Heightened Def Con from 1.00149e-006 to 1.00149e-006
Heightened Def Con from 1.00149e-006 to 1.00149e-006
Heightened Def Con from 1.00149e-006 to 1.00149e-006
Heightened Def Con from 1.00149e-006 to 1.00149e-006
Heightened Def Con from 1.00149e-006 to 1.00149e-006
Heightened Def Con from 1.00149e-006 to 1.00149e-006
Heightened Def Con from 1.00149e-006 to 1.00149e-006
Heightened Def Con from 1.00149e-006 to 1.00149e-006
Heightened Def Con from 1.00149e-006 to 1.00149e-006
Heightened Def Con from 1.00149e-006 to 1.00149e-006
Heightened Def Con from 1.00149e-006 +to 1.00149e-006
Heightened Def Con from 1.00149e-006 to 1.00149e-006
Heightened Def Con from 1.00149e-006 to 1.00149e-006
Heightened Def Con from 1.00149e-006 +to 1.00149e-006
Heightened Def Con from 1.00149e-006 to 1.00149e-006
Heightened Def Con from 1.00149e-006 to 1.00149e-006
Heightened Def Con from 1.00149e-006 to 1.00149e-006
Heightened Def Con from 1.00149e-006 to 1.00149e-006
Heightened Def Con from 1.00149e-006 to 1.00149e-006
Heightened Def Con from 1.0015e-006 to 1.0015e-006
Heightened Def Con from 1.0015e-006 to 1.0015e-006
Heightened Def Con from 1.0015e-006 to 1.0015e-006
Heightened Def Con from 1.0015e-006 to 1.0015e-006
Heightened Def Con from 1.0015e-006 to 1.0015e-006
Heightened Def Con from 1.0015e-006 +to 1.0015e-006
Heightened Def Con from 1.0015e-006 to 1.0015e-006
Heightened Def Con from 1.0015e-006 to 1.0015e-006
Heightened Def Con from 1.0015e-006 to 1.0015e-006
Heightened Def Con from 1.0015e-006 to 1.0015e-006
Heightened Def Con from 1.0015e-006 to 1.0015e-006
Heightened Def Con from 1.0015e-006 to 1.0015e-006
Heightened Def Con from 1.0015e-006 +to 1.0015e-006
Heightened Def Con from 1.0015e-006 to 1.0015e-006
Heightened Def Con from 1.0015e-006 to 1.0015e-006
Heightened Def Con from 1.0015e-006 to 1.0015e-006
Heightened Def Con from 1.0015e-006 to 1.0015e-006
Heightened Def Con from 1.0015e-006 to 1.0015e-006
Heightened Def Con from 1.0015e-006 to 1.0015e-006
Heightened Def Con from 1.0015e-006 to 1.0015e-006
Heightened Def Con from 1.0015e-006 to 1.0015e-006
Heightened Def Con from 1.0015e-006 to 1.0015e-006
Heightened Def Con from 1.0015e-006 to 1.0015e-006
Heightened Def Con from 1.0015e-006 to 1.0015e-006
Heightened Def Con from 1.0015e-006 to 1.0015e-006
Heightened Def Con from 1.0015e-006 to 1.0015e-006
Heightened Def Con from 1.0015e-006 to 1.0015e-006
Heightened Def Con from 1.0015e-006 to 1.0015e-006
Heightened Def Con from 1.0015e-006 to 1.0015e-006
Heightened Def Con from 1.0015e-006 to 1.0015e-006
Heightened Def Con from 1.0015e-006 to 1.0015e-006
Heightened Def Con from 1.0015e-006 to 1.0015e-006
Heightened Def Con from 1.0015e-006 to 1.0015e-006
Heightened Def Con from 1.0015e-006 to 1.0015e-006
Heightened Def Con from 1.0015e-006 to 1.0015e-006
Heightened Def Con from 1.0015e-006 to 1.0015e-006
Heightened Def Con from 1.0015e-006 to 1.0015e-006
Heightened Def Con from 1.0015e-006 to 1.0015e-006
Heightened Def Con from 1.0015e-006 to 1.0015e-006
Heightened Def Con from 1.0015e-006 to 1.0015e-006
Heightened Def Con from 1.0015e-006 +to 1.0015e-006
Heightened Def Con from 1.0015e-006 to 1.0015e-006
Heightened Def Con from 1.0015e-006 to 1.0015e-006
Heightened Def Con from 1.0015e-006 to 1.0015e-006
Heightened Def Con from 1.0015e-006 to 1.0015e-006
Heightened Def Con from 1.0015e-006 to 1.0015e-006
Heightened Def Con from 1.0015e-006 to 1.0015e-006
Heightened Def Con from 1.0015e-006 to 1.0015e-006
Heightened Def Con from 1.0015e-006 to 1.0015e-006
Heightened Def Con from 1.0015e-006 to 1.0015e-006
Heightened Def Con from 1.0015e-006 to 1.00152e-006
Heightened Def Con from 1.00152e-006 to 1.00152e-006
Heightened Def Con from 1.00152e-006 to 1.00152e-006
Heightened Def Con from 1.00152e-006 to 1.00152e-006
Heightened Def Con from 1.00152e-006 to 1.00152e-006
Heightened Def Con from 1.00152e-006 to 1.00152e-006
Heightened Def Con from 1.00152e-006 to 1.00152e-006
Heightened Def Con from 1.00152e-006 to 1.00152e-006
Heightened Def Con from 1.00152e-006 to 1.00152e-006
Heightened Def Con from 1.00152e-006 to 1.00152e-006
Heightened Def Con from 1.00152e-006 to 1.00152e-006
Heightened Def Con from 1.00152e-006 to 1.00152e-006
Heightened Def Con from 1.00152e-006 to 1.00152e-006
Heightened Def Con from 1.00152e-006 to 1.00152e-006
Heightened Def Con from 1.00152e-006 to 1.00152e-006
Heightened Def Con from 1.00152e-006 to 1.00152e-006
Heightened Def Con from 1.00152e-006 to 1.00152e-006
Heightened Def Con from 1.00152e-006 to 1.00152e-006
Heightened Def Con from 1.00152e-006 to 1.00152e-006
Heightened Def Con from 1.00152e-006 to 1.00152e-006
Heightened Def Con from 1.00152e-006 to 1.00152e-006
Heightened Def Con from 1.00152e-006 to 1.00152e-006
Heightened Def Con from 1.00152e-006 +to 1.00152e-006
Heightened Def Con from 1.00152e-006 to 1.00152e-006
Heightened Def Con from 1.00152e-006 to 1.00152e-006
Heightened Def Con from 1.00152e-006 to 1.00252e-006
Heightened Def Con from 1.00252e-006 to 1.00252e-006
Heightened Def Con from 1.00252e-006 to 1.00252e-006
Heightened Def Con from 1.00252e-006 to 1.00252e-006
Heightened Def Con from 1.00252e-006 to 1.00252e-006
Heightened Def Con from 1.00252e-006 to 1.00252e-006
Heightened Def Con from 1.00252e-006 to 1.00252e-006
Heightened Def Con from 1.00252e-006 to 1.00252e-006
Heightened Def Con from 1.00252e-006 to 1.00252e-006
Heightened Def Con from 1.00252e-006 to 1.00252e-006
Heightened Def Con from 1.00252e-006 to 1.00252e-006
Heightened Def Con from 1.00252e-006 to 1.00252e-006
Heightened Def Con from 1.00252e-006 to 1.00252e-006
Heightened Def Con from 1.00252e-006 to 1.00252e-006
Heightened Def Con from 1.00252e-006 to 1.00252e-006
Heightened Def Con from 1.00252e-006 to 1.00252e-006
Heightened Def Con from 1.00252e-006 +to 1.00252e-006
Heightened Def Con from 1.00252e-006 to 1.00252e-006
Heightened Def Con from 1.00252e-006 to 1.00252e-006
Heightened Def Con from 1.00252e-006 to 1.00252e-006
Heightened Def Con from 1.00252e-006 +to 1.00252e-006
Heightened Def Con from 1.00252e-006 to 1.00252e-006
Heightened Def Con from 1.00252e-006 to 1.00252e-006
Heightened Def Con from 1.00252e-006 +to 1.00252e-006
Heightened Def Con from 1.00252e-006 to 1.00252e-006
Heightened Def Con from 1.00252e-006 to 1.00252e-006
Heightened Def Con from 1.00252e-006 to 1.00252e-006
Heightened Def Con from 1.00252e-006 to 1.00252e-006
Heightened Def Con from 1.00252e-006 +to 1.00252e-006
Heightened Def Con from 1.00252e-006 to 1.00252e-006
Heightened Def Con from 1.00252e-006 ++to 1.00252e-006
Heightened Def Con from 1.00252e-006 to 1.00252e-006
Heightened Def Con from 1.00252e-006 to 1.00252e-006
Heightened Def Con from 1.00252e-006 to 1.00252e-006
Heightened Def Con from 1.00252e-006 to 1.00252e-006
Heightened Def Con from 1.00252e-006 to 1.00252e-006
Heightened Def Con from 1.00252e-006 to 1.00252e-006
Heightened Def Con from 1.00252e-006 to 1.00252e-006
Heightened Def Con from 1.00252e-006 to 1.00252e-006
Heightened Def Con from 1.00252e-006 +to 1.00252e-006
Heightened Def Con from 1.00252e-006 to 1.00252e-006
Heightened Def Con from 1.00252e-006 +to 1.00252e-006
Heightened Def Con from 1.00252e-006 to 1.00252e-006
Heightened Def Con from 1.00252e-006 to 1.00252e-006
Heightened Def Con from 1.00252e-006 +to 1.00254e-006
Heightened Def Con from 1.00254e-006 to 1.00254e-006
Heightened Def Con from 1.00254e-006 to 1.00254e-006
Heightened Def Con from 1.00254e-006 to 1.00254e-006
Heightened Def Con from 1.00254e-006 to 1.00254e-006
Heightened Def Con from 1.00254e-006 to 1.00254e-006
Heightened Def Con from 1.00254e-006 +to 1.00266e-006
Heightened Def Con from 1.00266e-006 to 1.00266e-006
Heightened Def Con from 1.00266e-006 to 1.00266e-006
Heightened Def Con from 1.00266e-006 to 1.00266e-006
Heightened Def Con from 1.00266e-006 to 1.00266e-006
Heightened Def Con from 1.00266e-006 to 1.00266e-006
Heightened Def Con from 1.00266e-006 to 1.00267e-006
Heightened Def Con from 1.00267e-006 to 1.00279e-006
Heightened Def Con from 1.00279e-006 to 1.00279e-006
Heightened Def Con from 1.00279e-006 to 1.00279e-006
Heightened Def Con from 1.00279e-006 to 1.00279e-006
Heightened Def Con from 1.00279e-006 to 1.00279e-006
Heightened Def Con from 1.00279e-006 to 1.00279e-006
Heightened Def Con from 1.00279e-006 +to 1.00279e-006
Heightened Def Con from 1.00279e-006 to 1.00292e-006
Heightened Def Con from 1.00292e-006 to 1.00292e-006
Heightened Def Con from 1.00292e-006 to 1.00292e-006
Heightened Def Con from 1.00292e-006 to 1.00292e-006
Heightened Def Con from 1.00292e-006 to 1.00292e-006
Heightened Def Con from 1.00292e-006 to 1.00292e-006
Heightened Def Con from 1.00292e-006 to 1.00292e-006
Heightened Def Con from 1.00292e-006 to 1.00292e-006
Heightened Def Con from 1.00292e-006 to 1.00292e-006
Heightened Def Con from 1.00292e-006 to 1.00292e-006
Heightened Def Con from 1.00292e-006 to 1.00292e-006
Heightened Def Con from 1.00292e-006 +to 1.00292e-006
Heightened Def Con from 1.00292e-006 to 1.00292e-006
Heightened Def Con from 1.00292e-006 to 1.00292e-006
Heightened Def Con from 1.00292e-006 to 1.00292e-006
Heightened Def Con from 1.00292e-006 to 1.00292e-006
Heightened Def Con from 1.00292e-006 to 1.00292e-006
Heightened Def Con from 1.00292e-006 to 1.00292e-006
Heightened Def Con from 1.00292e-006 to 1.00292e-006
Heightened Def Con from 1.00292e-006 to 1.00292e-006
Heightened Def Con from 1.00292e-006 to 1.00292e-006
Heightened Def Con from 1.00292e-006 +to 1.00292e-006
Heightened Def Con from 1.00292e-006 to 1.00292e-006
Heightened Def Con from 1.00292e-006 to 1.00292e-006
Heightened Def Con from 1.00292e-006 to 1.00292e-006
Heightened Def Con from 1.00292e-006 to 1.00292e-006
Heightened Def Con from 1.00292e-006 to 1.00292e-006
Heightened Def Con from 1.00292e-006 to 1.00292e-006
Heightened Def Con from 1.00292e-006 to 1.00292e-006
Heightened Def Con from 1.00292e-006 +to 1.00292e-006
Heightened Def Con from 1.00292e-006 to 1.00292e-006
Heightened Def Con from 1.00292e-006 +to 1.00292e-006
Heightened Def Con from 1.00292e-006 to 1.00292e-006
Heightened Def Con from 1.00292e-006 to 1.00292e-006
Heightened Def Con from 1.00292e-006 to 1.00292e-006
Heightened Def Con from 1.00292e-006 to 1.00292e-006
Heightened Def Con from 1.00292e-006 to 1.00292e-006
Heightened Def Con from 1.00292e-006 to 1.00292e-006
Heightened Def Con from 1.00292e-006 to 1.00292e-006
Heightened Def Con from 1.00292e-006 to 1.00292e-006
Heightened Def Con from 1.00292e-006 to 1.00292e-006
Heightened Def Con from 1.00292e-006 to 1.00292e-006
Heightened Def Con from 1.00292e-006 to 1.00292e-006
Heightened Def Con from 1.00292e-006 to 1.00292e-006
Heightened Def Con from 1.00292e-006 +to 1.00292e-006
Heightened Def Con from 1.00292e-006 to 1.00292e-006
Heightened Def Con from 1.00292e-006 to 1.00292e-006
Heightened Def Con from 1.00292e-006 to 1.00292e-006
Heightened Def Con from 1.00292e-006 to 1.00292e-006
Heightened Def Con from 1.00292e-006 to 1.00292e-006
Heightened Def Con from 1.00292e-006 to 1.00292e-006
Heightened Def Con from 1.00292e-006 to 1.00292e-006
Heightened Def Con from 1.00292e-006 to 1.00292e-006
Heightened Def Con from 1.00292e-006 +to 1.00292e-006
Heightened Def Con from 1.00292e-006 to 1.00292e-006
Heightened Def Con from 1.00292e-006 to 1.00292e-006
Heightened Def Con from 1.00292e-006 to 1.00292e-006
Heightened Def Con from 1.00292e-006 to 1.00292e-006
Heightened Def Con from 1.00292e-006 to 1.00292e-006
Heightened Def Con from 1.00292e-006 to 1.00292e-006
Heightened Def Con from 1.00292e-006 to 1.00292e-006
Heightened Def Con from 1.00292e-006 to 1.00292e-006
Heightened Def Con from 1.00292e-006 to 1.00292e-006
Heightened Def Con from 1.00292e-006 to 1.00292e-006
Heightened Def Con from 1.00292e-006 to 1.00292e-006
Heightened Def Con from 1.00292e-006 to 1.00292e-006
Heightened Def Con from 1.00292e-006 to 1.00292e-006
Heightened Def Con from 1.00292e-006 to 1.00292e-006
Heightened Def Con from 1.00292e-006 to 1.00292e-006
Heightened Def Con from 1.00292e-006 to 1.00292e-006
Heightened Def Con from 1.00292e-006 to 1.00292e-006
Heightened Def Con from 1.00292e-006 to 1.00292e-006
Heightened Def Con from 1.00292e-006 to 1.00292e-006
Heightened Def Con from 1.00292e-006 +to 1.00292e-006
Heightened Def Con from 1.00292e-006 to 1.00292e-006
Heightened Def Con from 1.00292e-006 to 1.00292e-006
Heightened Def Con from 1.00292e-006 to 1.00292e-006
Heightened Def Con from 1.00292e-006 to 1.00292e-006
Heightened Def Con from 1.00292e-006 to 1.00292e-006
Heightened Def Con from 1.00292e-006 ++to 1.00292e-006
Heightened Def Con from 1.00292e-006 to 1.00292e-006
Heightened Def Con from 1.00292e-006 to 1.00292e-006
Heightened Def Con from 1.00292e-006 to 1.00292e-006
Heightened Def Con from 1.00292e-006 to 1.00292e-006
Heightened Def Con from 1.00292e-006 to 1.00292e-006
Heightened Def Con from 1.00292e-006 to 1.00292e-006
Heightened Def Con from 1.00292e-006 to 1.00292e-006
Heightened Def Con from 1.00292e-006 to 1.00292e-006
Heightened Def Con from 1.00292e-006 to 1.00292e-006
Heightened Def Con from 1.00292e-006 to 1.00292e-006
Heightened Def Con from 1.00292e-006 +to 1.00292e-006
Heightened Def Con from 1.00292e-006 to 1.00292e-006
Heightened Def Con from 1.00292e-006 to 1.00292e-006
Heightened Def Con from 1.00292e-006 to 1.00292e-006
Heightened Def Con from 1.00292e-006 to 1.00392e-006
Heightened Def Con from 1.00392e-006 to 1.00392e-006
Heightened Def Con from 1.00392e-006 to 1.00392e-006
Heightened Def Con from 1.00392e-006 to 1.00393e-006
Heightened Def Con from 1.00393e-006 to 1.00393e-006
Heightened Def Con from 1.00393e-006 to 1.00393e-006
Heightened Def Con from 1.00393e-006 to 1.00393e-006
Heightened Def Con from 1.00393e-006 +to 1.00393e-006
Heightened Def Con from 1.00393e-006 to 1.00393e-006
Heightened Def Con from 1.00393e-006 to 1.00393e-006
Heightened Def Con from 1.00393e-006 to 1.00393e-006
Heightened Def Con from 1.00393e-006 +to 1.00393e-006
Heightened Def Con from 1.00393e-006 to 1.00393e-006
Heightened Def Con from 1.00393e-006 to 1.00393e-006
Heightened Def Con from 1.00393e-006 +to 1.00393e-006
Heightened Def Con from 1.00393e-006 to 1.00393e-006
Heightened Def Con from 1.00393e-006 to 1.00393e-006
Heightened Def Con from 1.00393e-006 to 1.00393e-006
Heightened Def Con from 1.00393e-006 ++to 1.00393e-006
Heightened Def Con from 1.00393e-006 to 1.00393e-006
Heightened Def Con from 1.00393e-006 to 1.00393e-006
Heightened Def Con from 1.00393e-006 to 1.00393e-006
Heightened Def Con from 1.00393e-006 to 1.00393e-006
Heightened Def Con from 1.00393e-006 to 1.00393e-006
Heightened Def Con from 1.00393e-006 +to 1.00393e-006
Heightened Def Con from 1.00393e-006 ++to 1.00393e-006
Heightened Def Con from 1.00393e-006 +to 1.00393e-006
Heightened Def Con from 1.00393e-006 to 1.00405e-006
Heightened Def Con from 1.00405e-006 to 1.00405e-006
Heightened Def Con from 1.00405e-006 to 1.00406e-006
Heightened Def Con from 1.00406e-006 to 1.00406e-006
Heightened Def Con from 1.00406e-006 to 1.00406e-006
Heightened Def Con from 1.00406e-006 +to 1.00406e-006
Heightened Def Con from 1.00406e-006 to 1.00406e-006
Heightened Def Con from 1.00406e-006 to 1.00406e-006
Heightened Def Con from 1.00406e-006 +to 1.00406e-006
Heightened Def Con from 1.00406e-006 to 1.00406e-006
Heightened Def Con from 1.00406e-006 to 1.00406e-006
Heightened Def Con from 1.00406e-006 to 1.00406e-006
Heightened Def Con from 1.00406e-006 to 1.00406e-006
Heightened Def Con from 1.00406e-006 to 1.00406e-006
Heightened Def Con from 1.00406e-006 to 1.00406e-006
Heightened Def Con from 1.00406e-006 to 1.00406e-006
Heightened Def Con from 1.00406e-006 to 1.00406e-006
Heightened Def Con from 1.00406e-006 to 1.00406e-006
Heightened Def Con from 1.00406e-006 to 1.00406e-006
Heightened Def Con from 1.00406e-006 +to 1.00406e-006
Heightened Def Con from 1.00406e-006 to 1.00406e-006
Heightened Def Con from 1.00406e-006 +to 1.00406e-006
Heightened Def Con from 1.00406e-006 to 1.00406e-006
Heightened Def Con from 1.00406e-006 to 1.00406e-006
Heightened Def Con from 1.00406e-006 to 1.00406e-006
Heightened Def Con from 1.00406e-006 +to 1.00406e-006
Heightened Def Con from 1.00406e-006 to 1.00406e-006
Heightened Def Con from 1.00406e-006 to 1.00406e-006
Heightened Def Con from 1.00406e-006 to 1.00406e-006
Heightened Def Con from 1.00406e-006 +to 1.00406e-006
Heightened Def Con from 1.00406e-006 to 1.00406e-006
Heightened Def Con from 1.00406e-006 to 1.00406e-006
Heightened Def Con from 1.00406e-006 to 1.00406e-006
Heightened Def Con from 1.00406e-006 to 1.00406e-006
Heightened Def Con from 1.00406e-006 to 1.00406e-006
Heightened Def Con from 1.00406e-006 to 1.00406e-006
Heightened Def Con from 1.00406e-006 to 1.00406e-006
Heightened Def Con from 1.00406e-006 to 1.00406e-006
Heightened Def Con from 1.00406e-006 to 1.00407e-006
Heightened Def Con from 1.00407e-006 +to 1.00407e-006
Heightened Def Con from 1.00407e-006 to 1.00407e-006
Heightened Def Con from 1.00407e-006 to 1.00407e-006
Heightened Def Con from 1.00407e-006 to 1.00407e-006
Heightened Def Con from 1.00407e-006 to 1.00407e-006
Heightened Def Con from 1.00407e-006 to 1.00407e-006
Heightened Def Con from 1.00407e-006 to 1.00408e-006
Heightened Def Con from 1.00408e-006 to 1.00408e-006
Heightened Def Con from 1.00408e-006 to 1.00408e-006
Heightened Def Con from 1.00408e-006 to 1.00408e-006
Heightened Def Con from 1.00408e-006 to 1.00408e-006
Heightened Def Con from 1.00408e-006 to 1.00408e-006
Heightened Def Con from 1.00408e-006 to 1.00408e-006
Heightened Def Con from 1.00408e-006 to 1.00408e-006
Heightened Def Con from 1.00408e-006 to 1.00408e-006
Heightened Def Con from 1.00408e-006 to 1.00408e-006
Heightened Def Con from 1.00408e-006 to 1.00408e-006
Heightened Def Con from 1.00408e-006 to 1.00408e-006
Heightened Def Con from 1.00408e-006 to 1.00408e-006
Heightened Def Con from 1.00408e-006 +to 1.00408e-006
Heightened Def Con from 1.00408e-006 to 1.00408e-006
Heightened Def Con from 1.00408e-006 to 1.00408e-006
Heightened Def Con from 1.00408e-006 to 1.00408e-006
Heightened Def Con from 1.00408e-006 to 1.00408e-006
Heightened Def Con from 1.00408e-006 to 1.00408e-006
Heightened Def Con from 1.00408e-006 to 1.00408e-006
Heightened Def Con from 1.00408e-006 to 1.00408e-006
Heightened Def Con from 1.00408e-006 to 1.00408e-006
Heightened Def Con from 1.00408e-006 to 1.00408e-006
Heightened Def Con from 1.00408e-006 to 1.00408e-006
Heightened Def Con from 1.00408e-006 +to 1.00408e-006
Heightened Def Con from 1.00408e-006 to 1.00408e-006
Heightened Def Con from 1.00408e-006 to 1.00408e-006
Heightened Def Con from 1.00408e-006 to 1.00408e-006
Heightened Def Con from 1.00408e-006 to 1.00408e-006
Heightened Def Con from 1.00408e-006 to 1.00408e-006
Heightened Def Con from 1.00408e-006 to 1.00408e-006
Heightened Def Con from 1.00408e-006 to 1.00408e-006
Heightened Def Con from 1.00408e-006 to 1.00408e-006
Heightened Def Con from 1.00408e-006 to 1.00408e-006
Heightened Def Con from 1.00408e-006 to 1.00408e-006
Heightened Def Con from 1.00408e-006 to 1.00408e-006
Heightened Def Con from 1.00408e-006 to 1.00408e-006
Heightened Def Con from 1.00408e-006 to 1.00408e-006
Heightened Def Con from 1.00408e-006 to 1.00408e-006
Heightened Def Con from 1.00408e-006 to 1.00408e-006
Heightened Def Con from 1.00408e-006 to 1.00408e-006
Heightened Def Con from 1.00408e-006 to 1.00408e-006
Heightened Def Con from 1.00408e-006 to 1.00408e-006
Heightened Def Con from 1.00408e-006 to 1.00408e-006
Heightened Def Con from 1.00408e-006 to 1.00408e-006
Heightened Def Con from 1.00408e-006 to 1.00408e-006
Heightened Def Con from 1.00408e-006 to 1.00408e-006
Heightened Def Con from 1.00408e-006 to 1.00408e-006
Heightened Def Con from 1.00408e-006 to 1.00408e-006
Heightened Def Con from 1.00408e-006 to 1.00408e-006
Heightened Def Con from 1.00408e-006 to 1.00408e-006
Heightened Def Con from 1.00408e-006 to 1.00408e-006
Heightened Def Con from 1.00408e-006 to 1.00408e-006
Heightened Def Con from 1.00408e-006 to 1.00408e-006
Heightened Def Con from 1.00408e-006 to 1.00408e-006
Heightened Def Con from 1.00408e-006 to 1.00408e-006
Heightened Def Con from 1.00408e-006 to 1.00408e-006
Heightened Def Con from 1.00408e-006 to 1.00408e-006
Heightened Def Con from 1.00408e-006 to 1.00408e-006
Heightened Def Con from 1.00408e-006 to 1.00408e-006
Heightened Def Con from 1.00408e-006 to 1.00408e-006
Heightened Def Con from 1.00408e-006 to 1.00408e-006
Heightened Def Con from 1.00408e-006 to 1.00408e-006
Heightened Def Con from 1.00408e-006 to 1.00408e-006
Heightened Def Con from 1.00408e-006 to 1.00408e-006
Heightened Def Con from 1.00408e-006 to 1.00408e-006
Heightened Def Con from 1.00408e-006 to 1.0042e-006
Heightened Def Con from 1.0042e-006 to 1.0042e-006
Heightened Def Con from 1.0042e-006 to 1.00421e-006
Heightened Def Con from 1.00421e-006 to 1.00421e-006
Heightened Def Con from 1.00421e-006 to 1.00421e-006
Heightened Def Con from 1.00421e-006 to 1.00421e-006
Heightened Def Con from 1.00421e-006 to 1.00421e-006
Heightened Def Con from 1.00421e-006 +to 1.00421e-006
Heightened Def Con from 1.00421e-006 to 1.00421e-006
Heightened Def Con from 1.00421e-006 to 1.00421e-006
Heightened Def Con from 1.00421e-006 +to 1.00421e-006
Heightened Def Con from 1.00421e-006 to 1.00421e-006
Heightened Def Con from 1.00421e-006 +to 1.00421e-006
Heightened Def Con from 1.00421e-006 to 1.00421e-006
Heightened Def Con from 1.00421e-006 to 1.00421e-006
Heightened Def Con from 1.00421e-006 to 1.00421e-006
Heightened Def Con from 1.00421e-006 to 1.00421e-006
Heightened Def Con from 1.00421e-006 to 1.00421e-006
Heightened Def Con from 1.00421e-006 to 1.00421e-006
Heightened Def Con from 1.00421e-006 +to 1.00421e-006
Heightened Def Con from 1.00421e-006 to 1.00421e-006
Heightened Def Con from 1.00421e-006 to 1.00421e-006
Heightened Def Con from 1.00421e-006 to 1.00421e-006
Heightened Def Con from 1.00421e-006 to 1.00421e-006
Heightened Def Con from 1.00421e-006 to 1.00421e-006
Heightened Def Con from 1.00421e-006 to 1.00421e-006
Heightened Def Con from 1.00421e-006 +to 1.00421e-006
Heightened Def Con from 1.00421e-006 to 1.00421e-006
Heightened Def Con from 1.00421e-006 to 1.00421e-006
Heightened Def Con from 1.00421e-006 to 1.00421e-006
Heightened Def Con from 1.00421e-006 to 1.00421e-006
Heightened Def Con from 1.00421e-006 +to 1.00421e-006
Heightened Def Con from 1.00421e-006 to 1.00421e-006
Heightened Def Con from 1.00421e-006 +to 1.00421e-006
Heightened Def Con from 1.00421e-006 to 1.00421e-006
Heightened Def Con from 1.00421e-006 to 1.00421e-006
Heightened Def Con from 1.00421e-006 to 1.00421e-006
Heightened Def Con from 1.00421e-006 to 1.00421e-006
Heightened Def Con from 1.00421e-006 to 1.00421e-006
Heightened Def Con from 1.00421e-006 to 1.00421e-006
Heightened Def Con from 1.00421e-006 to 1.00421e-006
Heightened Def Con from 1.00421e-006 +to 1.00421e-006
Heightened Def Con from 1.00421e-006 to 1.00421e-006
Heightened Def Con from 1.00421e-006 to 1.00421e-006
Heightened Def Con from 1.00421e-006 +to 1.00421e-006
Heightened Def Con from 1.00421e-006 to 1.00421e-006
Heightened Def Con from 1.00421e-006 +to 1.00421e-006
Heightened Def Con from 1.00421e-006 to 1.00421e-006
Heightened Def Con from 1.00421e-006 to 1.00421e-006
Heightened Def Con from 1.00421e-006 +to 1.00421e-006
Heightened Def Con from 1.00421e-006 +to 1.00421e-006
Heightened Def Con from 1.00421e-006 +to 1.00421e-006
Heightened Def Con from 1.00421e-006 to 1.00421e-006
Heightened Def Con from 1.00421e-006 to 1.00421e-006
Heightened Def Con from 1.00421e-006 to 1.00421e-006
Heightened Def Con from 1.00421e-006 to 1.00421e-006
Heightened Def Con from 1.00421e-006 to 1.00421e-006
Heightened Def Con from 1.00421e-006 +to 1.00421e-006
Heightened Def Con from 1.00421e-006 +to 1.00421e-006
Heightened Def Con from 1.00421e-006 to 1.00421e-006
Heightened Def Con from 1.00421e-006 to 1.00421e-006
Heightened Def Con from 1.00421e-006 to 1.00421e-006
Heightened Def Con from 1.00421e-006 to 1.00421e-006
Heightened Def Con from 1.00421e-006 to 1.00421e-006
Heightened Def Con from 1.00421e-006 to 1.00421e-006
Heightened Def Con from 1.00421e-006 +to 1.00421e-006
Heightened Def Con from 1.00421e-006 to 1.00421e-006
Heightened Def Con from 1.00421e-006 to 1.00421e-006
Heightened Def Con from 1.00421e-006 to 1.00421e-006
Heightened Def Con from 1.00421e-006 +to 1.00421e-006
Heightened Def Con from 1.00421e-006 +to 1.00421e-006
Heightened Def Con from 1.00421e-006 to 1.00423e-006
Heightened Def Con from 1.00423e-006 to 1.00423e-006
Heightened Def Con from 1.00423e-006 to 1.00423e-006
Heightened Def Con from 1.00423e-006 to 1.00423e-006
Heightened Def Con from 1.00423e-006 to 1.00423e-006
Heightened Def Con from 1.00423e-006 to 1.00423e-006
Heightened Def Con from 1.00423e-006 to 1.00423e-006
Heightened Def Con from 1.00423e-006 to 1.00423e-006
Heightened Def Con from 1.00423e-006 to 1.00423e-006
Heightened Def Con from 1.00423e-006 +to 1.00423e-006
Heightened Def Con from 1.00423e-006 to 1.00423e-006
Heightened Def Con from 1.00423e-006 to 1.00423e-006
Heightened Def Con from 1.00423e-006 to 1.00423e-006
Heightened Def Con from 1.00423e-006 to 1.00423e-006
Heightened Def Con from 1.00423e-006 +to 1.00423e-006
Heightened Def Con from 1.00423e-006 to 1.00423e-006
Heightened Def Con from 1.00423e-006 to 1.00423e-006
Heightened Def Con from 1.00423e-006 to 1.00423e-006
Heightened Def Con from 1.00423e-006 to 1.00423e-006
Heightened Def Con from 1.00423e-006 to 1.00423e-006
Heightened Def Con from 1.00423e-006 to 1.00423e-006
Heightened Def Con from 1.00423e-006 to 1.00423e-006
Heightened Def Con from 1.00423e-006 to 1.00423e-006
Heightened Def Con from 1.00423e-006 +to 1.00423e-006
Heightened Def Con from 1.00423e-006 to 1.00423e-006
Heightened Def Con from 1.00423e-006 to 1.00423e-006
Heightened Def Con from 1.00423e-006 to 1.00423e-006
Heightened Def Con from 1.00423e-006 to 1.00423e-006
Heightened Def Con from 1.00423e-006 to 1.00423e-006
Heightened Def Con from 1.00423e-006 +to 1.00423e-006
Heightened Def Con from 1.00423e-006 to 1.00423e-006
Heightened Def Con from 1.00423e-006 to 1.00423e-006
Heightened Def Con from 1.00423e-006 to 1.00423e-006
Heightened Def Con from 1.00423e-006 to 1.00423e-006
Heightened Def Con from 1.00423e-006 to 1.00423e-006
Heightened Def Con from 1.00423e-006 to 1.00423e-006
Heightened Def Con from 1.00423e-006 to 1.00423e-006
Heightened Def Con from 1.00423e-006 to 1.00423e-006
Heightened Def Con from 1.00423e-006 to 1.00423e-006
Heightened Def Con from 1.00423e-006 to 1.00423e-006
Heightened Def Con from 1.00423e-006 to 1.00423e-006
Heightened Def Con from 1.00423e-006 to 1.00423e-006
Heightened Def Con from 1.00423e-006 to 1.00423e-006
Heightened Def Con from 1.00423e-006 to 1.00423e-006
Heightened Def Con from 1.00423e-006 to 1.00423e-006
Heightened Def Con from 1.00423e-006 to 1.00423e-006
Heightened Def Con from 1.00423e-006 to 1.00423e-006
Heightened Def Con from 1.00423e-006 to 1.00423e-006
Heightened Def Con from 1.00423e-006 to 1.00423e-006
Heightened Def Con from 1.00423e-006 to 1.00423e-006
Heightened Def Con from 1.00423e-006 ++to 1.00423e-006
Heightened Def Con from 1.00423e-006 to 1.00423e-006
Heightened Def Con from 1.00423e-006 to 1.00423e-006
Heightened Def Con from 1.00423e-006 to 1.00423e-006
Heightened Def Con from 1.00423e-006 to 1.00423e-006
Heightened Def Con from 1.00423e-006 to 1.00423e-006
Heightened Def Con from 1.00423e-006 to 1.00423e-006
Heightened Def Con from 1.00423e-006 to 1.00423e-006
Heightened Def Con from 1.00423e-006 to 1.00423e-006
Heightened Def Con from 1.00423e-006 to 1.00423e-006
Heightened Def Con from 1.00423e-006 to 1.00423e-006
Heightened Def Con from 1.00423e-006 to 1.00423e-006
Heightened Def Con from 1.00423e-006 to 1.00423e-006
Heightened Def Con from 1.00423e-006 to 1.00423e-006
Heightened Def Con from 1.00423e-006 to 1.00423e-006
Heightened Def Con from 1.00423e-006 to 1.00423e-006
Heightened Def Con from 1.00423e-006 to 1.00423e-006
Heightened Def Con from 1.00423e-006 to 1.00423e-006
Heightened Def Con from 1.00423e-006 to 1.00423e-006
Heightened Def Con from 1.00423e-006 to 1.00423e-006
Heightened Def Con from 1.00423e-006 to 1.00423e-006
Heightened Def Con from 1.00423e-006 to 1.00423e-006
Heightened Def Con from 1.00423e-006 to 1.00423e-006
Heightened Def Con from 1.00423e-006 +to 1.00423e-006
Heightened Def Con from 1.00423e-006 to 1.00423e-006
Heightened Def Con from 1.00423e-006 +to 1.00423e-006
Heightened Def Con from 1.00423e-006 to 1.00423e-006
Heightened Def Con from 1.00423e-006 to 1.00423e-006
Heightened Def Con from 1.00423e-006 to 1.00423e-006
Heightened Def Con from 1.00423e-006 to 1.00423e-006
Heightened Def Con from 1.00423e-006 to 1.00423e-006
Heightened Def Con from 1.00423e-006 to 1.00423e-006
Heightened Def Con from 1.00423e-006 to 1.00423e-006
Heightened Def Con from 1.00423e-006 +to 1.00423e-006
Heightened Def Con from 1.00423e-006 to 1.00423e-006
Heightened Def Con from 1.00423e-006 to 1.00523e-006
Heightened Def Con from 1.00523e-006 to 1.00523e-006
Heightened Def Con from 1.00523e-006 to 1.00523e-006
Heightened Def Con from 1.00523e-006 to 1.00523e-006
Heightened Def Con from 1.00523e-006 to 1.00523e-006
Heightened Def Con from 1.00523e-006 to 1.00523e-006
Heightened Def Con from 1.00523e-006 to 1.00523e-006
Heightened Def Con from 1.00523e-006 +to 1.00523e-006
Heightened Def Con from 1.00523e-006 to 1.00523e-006
Heightened Def Con from 1.00523e-006 to 1.00523e-006
Heightened Def Con from 1.00523e-006 to 1.00523e-006
Heightened Def Con from 1.00523e-006 +to 1.00523e-006
Heightened Def Con from 1.00523e-006 to 1.00523e-006
Heightened Def Con from 1.00523e-006 to 1.00523e-006
Heightened Def Con from 1.00523e-006 to 1.00523e-006
Heightened Def Con from 1.00523e-006 to 1.00523e-006
Heightened Def Con from 1.00523e-006 +to 1.00523e-006
Heightened Def Con from 1.00523e-006 to 1.00523e-006
Heightened Def Con from 1.00523e-006 to 1.00523e-006
Heightened Def Con from 1.00523e-006 +to 1.00523e-006
Heightened Def Con from 1.00523e-006 to 1.00523e-006
Heightened Def Con from 1.00523e-006 to 1.00523e-006
Heightened Def Con from 1.00523e-006 to 1.00523e-006
Heightened Def Con from 1.00523e-006 +to 1.00523e-006
Heightened Def Con from 1.00523e-006 to 1.00523e-006
Heightened Def Con from 1.00523e-006 to 1.00523e-006
Heightened Def Con from 1.00523e-006 to 1.00523e-006
Heightened Def Con from 1.00523e-006 to 1.00523e-006
Heightened Def Con from 1.00523e-006 to 1.00523e-006
Heightened Def Con from 1.00523e-006 +to 1.00523e-006
Heightened Def Con from 1.00523e-006 to 1.00523e-006
Heightened Def Con from 1.00523e-006 to 1.00523e-006
Heightened Def Con from 1.00523e-006 to 1.00523e-006
Heightened Def Con from 1.00523e-006 to 1.00523e-006
Heightened Def Con from 1.00523e-006 +to 1.00523e-006
Heightened Def Con from 1.00523e-006 to 1.00523e-006
Heightened Def Con from 1.00523e-006 to 1.00523e-006
Heightened Def Con from 1.00523e-006 to 1.00523e-006
Heightened Def Con from 1.00523e-006 +to 1.00523e-006
Heightened Def Con from 1.00523e-006 to 1.00523e-006
Heightened Def Con from 1.00523e-006 to 1.00623e-006
Heightened Def Con from 1.00623e-006 to 1.00623e-006
Heightened Def Con from 1.00623e-006 to 1.00623e-006
Heightened Def Con from 1.00623e-006 +to 1.00623e-006
Heightened Def Con from 1.00623e-006 +to 1.00623e-006
Heightened Def Con from 1.00623e-006 +to 1.00623e-006
Heightened Def Con from 1.00623e-006 to 1.00623e-006
Heightened Def Con from 1.00623e-006 to 1.00624e-006
Heightened Def Con from 1.00624e-006 +to 1.00624e-006
Heightened Def Con from 1.00624e-006 to 1.00624e-006
Heightened Def Con from 1.00624e-006 to 1.00624e-006
Heightened Def Con from 1.00624e-006 to 1.00624e-006
Heightened Def Con from 1.00624e-006 to 1.00624e-006
Heightened Def Con from 1.00624e-006 to 1.00624e-006
Heightened Def Con from 1.00624e-006 to 1.00624e-006
Heightened Def Con from 1.00624e-006 to 1.00624e-006
Heightened Def Con from 1.00624e-006 to 1.00624e-006
Heightened Def Con from 1.00624e-006 to 1.00624e-006
Heightened Def Con from 1.00624e-006 to 1.00636e-006
Heightened Def Con from 1.00636e-006 to 1.00636e-006
Heightened Def Con from 1.00636e-006 to 1.00636e-006
Heightened Def Con from 1.00636e-006 to 1.00636e-006
Heightened Def Con from 1.00636e-006 to 1.00636e-006
Heightened Def Con from 1.00636e-006 ++to 1.00636e-006
Heightened Def Con from 1.00636e-006 to 1.00636e-006
Heightened Def Con from 1.00636e-006 to 1.00636e-006
Heightened Def Con from 1.00636e-006 to 1.00636e-006
Heightened Def Con from 1.00636e-006 to 1.00636e-006
Heightened Def Con from 1.00636e-006 to 1.00636e-006
Heightened Def Con from 1.00636e-006 to 1.00636e-006
Heightened Def Con from 1.00636e-006 +to 1.00636e-006
Heightened Def Con from 1.00636e-006 +to 1.00636e-006
Heightened Def Con from 1.00636e-006 to 1.00636e-006
Heightened Def Con from 1.00636e-006 to 1.00636e-006
Heightened Def Con from 1.00636e-006 to 1.00636e-006
Heightened Def Con from 1.00636e-006 +to 1.00636e-006
Heightened Def Con from 1.00636e-006 to 1.00636e-006
Heightened Def Con from 1.00636e-006 to 1.00636e-006
Heightened Def Con from 1.00636e-006 to 1.00636e-006
Heightened Def Con from 1.00636e-006 to 1.00636e-006
Heightened Def Con from 1.00636e-006 to 1.00636e-006
Heightened Def Con from 1.00636e-006 to 1.00636e-006
Heightened Def Con from 1.00636e-006 +to 1.00636e-006
Heightened Def Con from 1.00636e-006 to 1.00636e-006
Heightened Def Con from 1.00636e-006 to 1.00636e-006
Heightened Def Con from 1.00636e-006 to 1.00636e-006
Heightened Def Con from 1.00636e-006 +to 1.00636e-006
Heightened Def Con from 1.00636e-006 to 1.00636e-006
Heightened Def Con from 1.00636e-006 to 1.00636e-006
Heightened Def Con from 1.00636e-006 +to 1.00636e-006
Heightened Def Con from 1.00636e-006 to 1.00636e-006
Heightened Def Con from 1.00636e-006 to 1.00636e-006
Heightened Def Con from 1.00636e-006 to 1.00636e-006
Heightened Def Con from 1.00636e-006 +to 1.00636e-006
Heightened Def Con from 1.00636e-006 to 1.00636e-006
Heightened Def Con from 1.00636e-006 to 1.00636e-006
Heightened Def Con from 1.00636e-006 to 1.00636e-006
Heightened Def Con from 1.00636e-006 to 1.00636e-006
Heightened Def Con from 1.00636e-006 to 1.00636e-006
Heightened Def Con from 1.00636e-006 to 1.00636e-006
Heightened Def Con from 1.00636e-006 to 1.00636e-006
Heightened Def Con from 1.00636e-006 to 1.00636e-006
Heightened Def Con from 1.00636e-006 to 1.00636e-006
Heightened Def Con from 1.00636e-006 to 1.00636e-006
Heightened Def Con from 1.00636e-006 ++to 1.00636e-006
Heightened Def Con from 1.00636e-006 to 1.00636e-006
Heightened Def Con from 1.00636e-006 ++to 1.00636e-006
Heightened Def Con from 1.00636e-006 +to 1.00636e-006
Heightened Def Con from 1.00636e-006 to 1.00636e-006
Heightened Def Con from 1.00636e-006 to 1.00636e-006
Heightened Def Con from 1.00636e-006 to 1.00636e-006
Heightened Def Con from 1.00636e-006 to 1.00636e-006
Heightened Def Con from 1.00636e-006 to 1.00636e-006
Heightened Def Con from 1.00636e-006 to 1.00636e-006
Heightened Def Con from 1.00636e-006 to 1.00636e-006
Heightened Def Con from 1.00636e-006 to 1.00636e-006
Heightened Def Con from 1.00636e-006 to 1.00636e-006
Heightened Def Con from 1.00636e-006 to 1.00636e-006
Heightened Def Con from 1.00636e-006 to 1.00636e-006
Heightened Def Con from 1.00636e-006 to 1.00637e-006
Heightened Def Con from 1.00637e-006 to 1.00637e-006
Heightened Def Con from 1.00637e-006 to 1.00637e-006
Heightened Def Con from 1.00637e-006 to 1.00637e-006
Heightened Def Con from 1.00637e-006 to 1.00637e-006
Heightened Def Con from 1.00637e-006 to 1.00637e-006
Heightened Def Con from 1.00637e-006 to 1.00637e-006
Heightened Def Con from 1.00637e-006 to 1.00637e-006
Heightened Def Con from 1.00637e-006 to 1.00637e-006
Heightened Def Con from 1.00637e-006 to 1.00637e-006
Heightened Def Con from 1.00637e-006 to 1.00637e-006
Heightened Def Con from 1.00637e-006 to 1.00637e-006
Heightened Def Con from 1.00637e-006 +to 1.00637e-006
Heightened Def Con from 1.00637e-006 to 1.00637e-006
Heightened Def Con from 1.00637e-006 +to 1.00637e-006
Heightened Def Con from 1.00637e-006 to 1.00637e-006
Heightened Def Con from 1.00637e-006 to 1.00637e-006
Heightened Def Con from 1.00637e-006 +to 1.00637e-006
Heightened Def Con from 1.00637e-006 +to 1.00637e-006
Heightened Def Con from 1.00637e-006 to 1.00637e-006
Heightened Def Con from 1.00637e-006 to 1.00637e-006
Heightened Def Con from 1.00637e-006 +to 1.00637e-006
Heightened Def Con from 1.00637e-006 to 1.00637e-006
Heightened Def Con from 1.00637e-006 to 1.00637e-006
Heightened Def Con from 1.00637e-006 +to 1.00637e-006
Heightened Def Con from 1.00637e-006 to 1.00637e-006
Heightened Def Con from 1.00637e-006 ++to 1.00637e-006
Heightened Def Con from 1.00637e-006 to 1.00637e-006
Heightened Def Con from 1.00637e-006 to 1.00637e-006
Heightened Def Con from 1.00637e-006 +to 1.00637e-006
Heightened Def Con from 1.00637e-006 to 1.00637e-006
Heightened Def Con from 1.00637e-006 to 1.00637e-006
Heightened Def Con from 1.00637e-006 +to 1.00637e-006
Heightened Def Con from 1.00637e-006 to 1.00637e-006
Heightened Def Con from 1.00637e-006 to 1.00637e-006
Heightened Def Con from 1.00637e-006 +to 1.00637e-006
Heightened Def Con from 1.00637e-006 to 1.00637e-006
Heightened Def Con from 1.00637e-006 to 1.00637e-006
Heightened Def Con from 1.00637e-006 to 1.00637e-006
Heightened Def Con from 1.00637e-006 to 1.00637e-006
Heightened Def Con from 1.00637e-006 to 1.00637e-006
Heightened Def Con from 1.00637e-006 +to 1.00637e-006
Heightened Def Con from 1.00637e-006 to 1.00637e-006
Heightened Def Con from 1.00637e-006 to 1.00637e-006
Heightened Def Con from 1.00637e-006 to 1.00637e-006
Heightened Def Con from 1.00637e-006 +to 1.00637e-006
Heightened Def Con from 1.00637e-006 to 1.00637e-006
Heightened Def Con from 1.00637e-006 to 1.00637e-006
Heightened Def Con from 1.00637e-006 to 1.00637e-006
Heightened Def Con from 1.00637e-006 to 1.00637e-006
Heightened Def Con from 1.00637e-006 to 1.00637e-006
Heightened Def Con from 1.00637e-006 to 1.00637e-006
Heightened Def Con from 1.00637e-006 to 1.00637e-006
Heightened Def Con from 1.00637e-006 to 1.00637e-006
Heightened Def Con from 1.00637e-006 +to 1.00637e-006
Heightened Def Con from 1.00637e-006 to 1.00637e-006
Heightened Def Con from 1.00637e-006 +to 1.00637e-006
Heightened Def Con from 1.00637e-006 to 1.00637e-006
Heightened Def Con from 1.00637e-006 to 1.00637e-006
Heightened Def Con from 1.00637e-006 +to 1.00637e-006
Heightened Def Con from 1.00637e-006 to 1.00637e-006
Heightened Def Con from 1.00637e-006 to 1.00637e-006
Heightened Def Con from 1.00637e-006 to 1.00637e-006
Heightened Def Con from 1.00637e-006 to 1.00637e-006
Heightened Def Con from 1.00637e-006 +to 1.00637e-006
Heightened Def Con from 1.00637e-006 to 1.00637e-006
Heightened Def Con from 1.00637e-006 to 1.00637e-006
Heightened Def Con from 1.00637e-006 to 1.00637e-006
Heightened Def Con from 1.00637e-006 to 1.00637e-006
Heightened Def Con from 1.00637e-006 to 1.00637e-006
Heightened Def Con from 1.00637e-006 to 1.00637e-006
Heightened Def Con from 1.00637e-006 to 1.00637e-006
Heightened Def Con from 1.00637e-006 to 1.00637e-006
Heightened Def Con from 1.00637e-006 to 1.00637e-006
Heightened Def Con from 1.00637e-006 to 1.00637e-006
Heightened Def Con from 1.00637e-006 to 1.00637e-006
Heightened Def Con from 1.00637e-006 to 1.00637e-006
Heightened Def Con from 1.00637e-006 to 1.00637e-006
Heightened Def Con from 1.00637e-006 to 1.00637e-006
Heightened Def Con from 1.00637e-006 to 1.00637e-006
Heightened Def Con from 1.00637e-006 +to 1.00637e-006
Heightened Def Con from 1.00637e-006 to 1.00637e-006
Heightened Def Con from 1.00637e-006 to 1.00637e-006
Heightened Def Con from 1.00637e-006 to 1.00637e-006
Heightened Def Con from 1.00637e-006 to 1.00637e-006
Heightened Def Con from 1.00637e-006 to 1.00637e-006
Heightened Def Con from 1.00637e-006 to 1.00637e-006
Heightened Def Con from 1.00637e-006 to 1.00637e-006
Heightened Def Con from 1.00637e-006 to 1.00637e-006
Heightened Def Con from 1.00637e-006 to 1.00637e-006
Heightened Def Con from 1.00637e-006 to 1.00637e-006
Heightened Def Con from 1.00637e-006 to 1.00637e-006
Heightened Def Con from 1.00637e-006 to 1.00637e-006
Heightened Def Con from 1.00637e-006 +to 1.00637e-006
Heightened Def Con from 1.00637e-006 to 1.00637e-006
Heightened Def Con from 1.00637e-006 +to 1.00637e-006
Heightened Def Con from 1.00637e-006 to 1.00637e-006
Heightened Def Con from 1.00637e-006 to 1.00637e-006
Heightened Def Con from 1.00637e-006 ++to 1.00637e-006
Heightened Def Con from 1.00637e-006 to 1.00637e-006
Heightened Def Con from 1.00637e-006 to 1.00637e-006
Heightened Def Con from 1.00637e-006 to 1.00637e-006
Heightened Def Con from 1.00637e-006 to 1.00637e-006
Heightened Def Con from 1.00637e-006 to 1.00637e-006
Heightened Def Con from 1.00637e-006 to 1.0065e-006
Heightened Def Con from 1.0065e-006 to 1.0065e-006
Heightened Def Con from 1.0065e-006 to 1.0065e-006
Heightened Def Con from 1.0065e-006 to 1.0065e-006
Heightened Def Con from 1.0065e-006 to 1.0065e-006
Heightened Def Con from 1.0065e-006 to 1.0065e-006
Heightened Def Con from 1.0065e-006 to 1.0065e-006
Heightened Def Con from 1.0065e-006 to 1.0065e-006
Heightened Def Con from 1.0065e-006 to 1.0065e-006
Heightened Def Con from 1.0065e-006 to 1.0065e-006
Heightened Def Con from 1.0065e-006 to 1.0065e-006
Heightened Def Con from 1.0065e-006 to 1.0065e-006
Heightened Def Con from 1.0065e-006 to 1.0065e-006
Heightened Def Con from 1.0065e-006 to 1.0065e-006
Heightened Def Con from 1.0065e-006 to 1.0065e-006
Heightened Def Con from 1.0065e-006 to 1.0065e-006
Heightened Def Con from 1.0065e-006 to 1.0065e-006
Heightened Def Con from 1.0065e-006 to 1.0065e-006
Heightened Def Con from 1.0065e-006 to 1.0065e-006
Heightened Def Con from 1.0065e-006 to 1.0065e-006
Heightened Def Con from 1.0065e-006 +to 1.0065e-006
Heightened Def Con from 1.0065e-006 to 1.0065e-006
Heightened Def Con from 1.0065e-006 to 1.0065e-006
Heightened Def Con from 1.0065e-006 +to 1.0065e-006
Heightened Def Con from 1.0065e-006 to 1.0065e-006
Heightened Def Con from 1.0065e-006 to 1.0065e-006
Heightened Def Con from 1.0065e-006 to 1.0065e-006
Heightened Def Con from 1.0065e-006 to 1.0065e-006
Heightened Def Con from 1.0065e-006 +to 1.0065e-006
Heightened Def Con from 1.0065e-006 to 1.0065e-006
Heightened Def Con from 1.0065e-006 to 1.0065e-006
Heightened Def Con from 1.0065e-006 to 1.0065e-006
Heightened Def Con from 1.0065e-006 to 1.0065e-006
Heightened Def Con from 1.0065e-006 to 1.0065e-006
Heightened Def Con from 1.0065e-006 to 1.0065e-006
Heightened Def Con from 1.0065e-006 to 1.0065e-006
Heightened Def Con from 1.0065e-006 to 1.0065e-006
Heightened Def Con from 1.0065e-006 to 1.0065e-006
Heightened Def Con from 1.0065e-006 +to 1.0065e-006
Heightened Def Con from 1.0065e-006 to 1.0065e-006
Heightened Def Con from 1.0065e-006 to 1.0065e-006
Heightened Def Con from 1.0065e-006 to 1.0065e-006
Heightened Def Con from 1.0065e-006 to 1.0065e-006
Heightened Def Con from 1.0065e-006 to 1.0065e-006
Heightened Def Con from 1.0065e-006 to 1.0065e-006
Heightened Def Con from 1.0065e-006 to 1.0065e-006
Heightened Def Con from 1.0065e-006 to 1.0065e-006
Heightened Def Con from 1.0065e-006 to 1.0065e-006
Heightened Def Con from 1.0065e-006 to 1.0065e-006
Heightened Def Con from 1.0065e-006 to 1.0065e-006
Heightened Def Con from 1.0065e-006 to 1.0065e-006
Heightened Def Con from 1.0065e-006 to 1.0065e-006
Heightened Def Con from 1.0065e-006 to 1.0065e-006
Heightened Def Con from 1.0065e-006 to 1.00652e-006
Heightened Def Con from 1.00652e-006 to 1.00652e-006
Heightened Def Con from 1.00652e-006 to 1.00652e-006
Heightened Def Con from 1.00652e-006 to 1.00652e-006
Heightened Def Con from 1.00652e-006 to 1.00652e-006
Heightened Def Con from 1.00652e-006 to 1.00652e-006
Heightened Def Con from 1.00652e-006 to 1.00652e-006
Heightened Def Con from 1.00652e-006 ++to 1.00652e-006
Heightened Def Con from 1.00652e-006 to 1.00652e-006
Heightened Def Con from 1.00652e-006 to 1.00652e-006
Heightened Def Con from 1.00652e-006 +to 1.00652e-006
Heightened Def Con from 1.00652e-006 to 1.00652e-006
Heightened Def Con from 1.00652e-006 to 1.00652e-006
Heightened Def Con from 1.00652e-006 to 1.00652e-006
Heightened Def Con from 1.00652e-006 to 1.00652e-006
Heightened Def Con from 1.00652e-006 to 1.00652e-006
Heightened Def Con from 1.00652e-006 to 1.00652e-006
Heightened Def Con from 1.00652e-006 to 1.00652e-006
Heightened Def Con from 1.00652e-006 to 1.00652e-006
[...]
Heightened Def Con from 1.23842e-006 to 1.23842e-006
Heightened Def Con from 1.23842e-006 to 1.23842e-006
Heightened Def Con from 1.23842e-006 to 1.23842e-006
Heightened Def Con from 1.23842e-006 to 1.23842e-006
Heightened Def Con from 1.23842e-006 to 1.23842e-006
Heightened Def Con from 1.23842e-006 +to 1.23842e-006
Heightened Def Con from 1.23842e-006 to 1.23842e-006
Heightened Def Con from 1.23842e-006 to 1.23842e-006
Heightened Def Con from 1.23842e-006 to 1.23842e-006
Heightened Def Con from 1.23842e-006 to 1.23842e-006
Heightened Def Con from 1.23842e-006 to 1.23842e-006
Heightened Def Con from 1.23842e-006 to 1.23842e-006
Heightened Def Con from 1.23842e-006 to 1.23842e-006
Heightened Def Con from 1.23842e-006 to 1.23842e-006
Heightened Def Con from 1.23842e-006 to 1.23842e-006
Heightened Def Con from 1.23842e-006 to 1.23842e-006
Heightened Def Con from 1.23842e-006 to 1.23842e-006
Heightened Def Con from 1.23842e-006 to 1.23842e-006
Heightened Def Con from 1.23842e-006 to 1.23842e-006
Heightened Def Con from 1.23843e-006 to 1.23855e-006
Heightened Def Con from 1.23855e-006 to 1.23855e-006
Heightened Def Con from 1.23855e-006 to 1.23855e-006
Heightened Def Con from 1.23855e-006 to 1.23855e-006
Heightened Def Con from 1.23855e-006 to 1.23855e-006
Heightened Def Con from 1.23855e-006 to 1.23855e-006
Heightened Def Con from 1.23855e-006 +to 1.23855e-006
Heightened Def Con from 1.23855e-006 to 1.23855e-006
Heightened Def Con from 1.23855e-006 to 1.23855e-006
Heightened Def Con from 1.23855e-006 +to 1.23855e-006
Heightened Def Con from 1.23855e-006 to 1.23855e-006
Heightened Def Con from 1.23855e-006 +to 1.23855e-006
Heightened Def Con from 1.23855e-006 to 1.23855e-006
Heightened Def Con from 1.23855e-006 to 1.23855e-006
Heightened Def Con from 1.23855e-006 +to 1.23955e-006
Heightened Def Con from 1.23955e-006 to 1.23955e-006
Heightened Def Con from 1.23955e-006 to 1.23955e-006
Heightened Def Con from 1.23955e-006 to 1.23955e-006
Heightened Def Con from 1.23955e-006 to 1.23955e-006
Heightened Def Con from 1.23955e-006 to 1.23955e-006
Heightened Def Con from 1.23955e-006 to 1.23955e-006
Heightened Def Con from 1.23955e-006 to 1.23955e-006
Heightened Def Con from 1.23955e-006 to 1.23955e-006
Heightened Def Con from 1.23955e-006 to 1.23957e-006
Heightened Def Con from 1.23957e-006 to 1.23957e-006
Heightened Def Con from 1.23957e-006 to 1.23957e-006
Heightened Def Con from 1.23957e-006 to 1.23957e-006
Heightened Def Con from 1.23957e-006 to 1.23957e-006
Heightened Def Con from 1.23957e-006 to 1.23957e-006
Heightened Def Con from 1.23957e-006 to 1.23957e-006
Heightened Def Con from 1.23957e-006 to 1.23957e-006
Heightened Def Con from 1.23957e-006 to 1.23957e-006
Heightened Def Con from 1.23957e-006 to 1.23957e-006
Heightened Def Con from 1.23957e-006 +to 1.23957e-006
Heightened Def Con from 1.23957e-006 to 1.23957e-006
Heightened Def Con from 1.23957e-006 to 1.23957e-006
Heightened Def Con from 1.23957e-006 to 1.23957e-006
Heightened Def Con from 1.23957e-006 to 1.23957e-006
Heightened Def Con from 1.23957e-006 to 1.23957e-006
Heightened Def Con from 1.23957e-006 to 1.23957e-006
Heightened Def Con from 1.23957e-006 to 1.23957e-006
Heightened Def Con from 1.23957e-006 to 1.23957e-006
Heightened Def Con from 1.23957e-006 to 1.23957e-006
Heightened Def Con from 1.23957e-006 to 1.23957e-006
Heightened Def Con from 1.23957e-006 to 1.23957e-006
Heightened Def Con from 1.23957e-006 to 1.23957e-006
Heightened Def Con from 1.23957e-006 to 1.23957e-006
Heightened Def Con from 1.23957e-006 to 1.23957e-006
Heightened Def Con from 1.23957e-006 to 1.23957e-006
Heightened Def Con from 1.23957e-006 to 1.23957e-006
Heightened Def Con from 1.23957e-006 to 1.23957e-006
Heightened Def Con from 1.23957e-006 to 1.23957e-006
Heightened Def Con from 1.23957e-006 to 1.23957e-006
Heightened Def Con from 1.23957e-006 to 1.23957e-006
Heightened Def Con from 1.23957e-006 to 1.23957e-006
Heightened Def Con from 1.23957e-006 to 1.23957e-006
Heightened Def Con from 1.23957e-006 to 1.23957e-006
Heightened Def Con from 1.23957e-006 to 1.23957e-006
Heightened Def Con from 1.23957e-006 to 1.23957e-006
Heightened Def Con from 1.23957e-006 to 1.23957e-006
Heightened Def Con from 1.23957e-006 to 1.23957e-006
Heightened Def Con from 1.23957e-006 to 1.23957e-006
Heightened Def Con from 1.23957e-006 to 1.23957e-006
Heightened Def Con from 1.23957e-006 to 1.23957e-006
Heightened Def Con from 1.23957e-006 to 1.23957e-006
Heightened Def Con from 1.23957e-006 to 1.23957e-006
Heightened Def Con from 1.23957e-006 to 1.23957e-006
Heightened Def Con from 1.23957e-006 to 1.23957e-006
Heightened Def Con from 1.23957e-006 to 1.23957e-006
Heightened Def Con from 1.23957e-006 to 1.23957e-006
Heightened Def Con from 1.23957e-006 to 1.23957e-006
Heightened Def Con from 1.23957e-006 to 1.23957e-006
Heightened Def Con from 1.23957e-006 to 1.23957e-006
Heightened Def Con from 1.23957e-006 to 1.23959e-006
Heightened Def Con from 1.23959e-006 to 1.23959e-006
Heightened Def Con from 1.23959e-006 to 1.23959e-006
Heightened Def Con from 1.23959e-006 to 1.23959e-006
Heightened Def Con from 1.23959e-006 to 1.23959e-006
Heightened Def Con from 1.23959e-006 to 1.23959e-006
Heightened Def Con from 1.23959e-006 to 1.23959e-006
Heightened Def Con from 1.23959e-006 to 1.23959e-006
Heightened Def Con from 1.23959e-006 to 1.23959e-006
Heightened Def Con from 1.23959e-006 to 1.23959e-006
Heightened Def Con from 1.23959e-006 to 1.23959e-006
Heightened Def Con from 1.23959e-006 to 1.23959e-006
Heightened Def Con from 1.23959e-006 +to 1.23959e-006
Heightened Def Con from 1.23959e-006 to 1.23959e-006
Heightened Def Con from 1.23959e-006 to 1.23959e-006
Heightened Def Con from 1.23959e-006 to 1.23959e-006
Heightened Def Con from 1.23959e-006 to 1.23959e-006
Heightened Def Con from 1.23959e-006 to 1.23959e-006
Heightened Def Con from 1.23959e-006 to 1.23959e-006
Heightened Def Con from 1.23959e-006 to 1.23959e-006
Heightened Def Con from 1.23959e-006 to 1.23959e-006
Heightened Def Con from 1.23959e-006 to 1.23959e-006
Heightened Def Con from 1.23959e-006 +to 1.23959e-006
Heightened Def Con from 1.23959e-006 to 1.23959e-006
Heightened Def Con from 1.23959e-006 to 1.23959e-006
Heightened Def Con from 1.23959e-006 +to 1.23959e-006
Heightened Def Con from 1.23959e-006 to 1.23959e-006
Heightened Def Con from 1.23959e-006 to 1.23959e-006
Heightened Def Con from 1.23959e-006 to 1.23959e-006
Heightened Def Con from 1.23959e-006 to 1.23959e-006
Heightened Def Con from 1.23959e-006 to 1.23959e-006
Heightened Def Con from 1.23959e-006 to 1.23959e-006
Heightened Def Con from 1.23959e-006 to 1.23959e-006
Heightened Def Con from 1.23959e-006 to 1.23959e-006
Heightened Def Con from 1.23959e-006 to 1.23959e-006
Heightened Def Con from 1.23959e-006 to 1.23959e-006
Heightened Def Con from 1.23959e-006 to 1.23959e-006
Heightened Def Con from 1.23959e-006 to 1.23959e-006
Heightened Def Con from 1.23959e-006 to 1.23959e-006
Heightened Def Con from 1.23959e-006 to 1.23959e-006
Heightened Def Con from 1.23959e-006 to 1.23959e-006
Heightened Def Con from 1.23959e-006 to 1.23959e-006
Heightened Def Con from 1.23959e-006 to 1.23959e-006
Heightened Def Con from 1.23959e-006 to 1.23959e-006
Heightened Def Con from 1.23959e-006 to 1.23959e-006
Heightened Def Con from 1.23959e-006 to 1.23959e-006
Heightened Def Con from 1.23959e-006 to 1.23959e-006
Heightened Def Con from 1.23959e-006 to 1.23959e-006
Heightened Def Con from 1.23959e-006 to 1.23959e-006
Heightened Def Con from 1.23959e-006 to 1.23959e-006
Heightened Def Con from 1.23959e-006 to 1.23959e-006
Heightened Def Con from 1.23959e-006 to 1.23959e-006
Heightened Def Con from 1.23959e-006 to 1.23959e-006
Heightened Def Con from 1.23959e-006 to 1.23959e-006
Heightened Def Con from 1.23959e-006 to 1.23959e-006
Heightened Def Con from 1.23959e-006 to 1.23959e-006
Heightened Def Con from 1.23959e-006 to 1.23959e-006
Heightened Def Con from 1.23959e-006 to 1.23959e-006
Heightened Def Con from 1.23959e-006 to 1.23959e-006
Heightened Def Con from 1.23959e-006 to 1.23959e-006
Heightened Def Con from 1.23959e-006 to 1.23959e-006
Heightened Def Con from 1.23959e-006 to 1.23959e-006
Heightened Def Con from 1.23959e-006 to 1.23959e-006
Heightened Def Con from 1.23959e-006 to 1.23959e-006
Heightened Def Con from 1.23959e-006 to 1.23959e-006
Heightened Def Con from 1.23959e-006 +to 1.23959e-006
Heightened Def Con from 1.23959e-006 to 1.23959e-006
Heightened Def Con from 1.23959e-006 to 1.23959e-006
Heightened Def Con from 1.23959e-006 to 1.23959e-006
Heightened Def Con from 1.23959e-006 +to 1.23959e-006
Heightened Def Con from 1.23959e-006 to 1.23959e-006
Heightened Def Con from 1.23959e-006 to 1.23959e-006
Heightened Def Con from 1.23959e-006 to 1.23959e-006
Heightened Def Con from 1.23959e-006 to 1.24059e-006
Heightened Def Con from 1.24059e-006 to 1.24059e-006
Heightened Def Con from 1.24059e-006 to 1.24059e-006
Heightened Def Con from 1.24059e-006 to 1.24059e-006
Heightened Def Con from 1.24059e-006 to 1.24059e-006
Heightened Def Con from 1.24059e-006 +to 1.24059e-006
Heightened Def Con from 1.24059e-006 to 1.24059e-006
Heightened Def Con from 1.24059e-006 to 1.24059e-006
Heightened Def Con from 1.24059e-006 to 1.24059e-006
Heightened Def Con from 1.24059e-006 to 1.24059e-006
Heightened Def Con from 1.24059e-006 +to 1.24059e-006
Heightened Def Con from 1.24059e-006 to 1.24059e-006
Heightened Def Con from 1.24059e-006 to 1.24059e-006
Heightened Def Con from 1.24059e-006 to 1.24059e-006
Heightened Def Con from 1.24059e-006 to 1.24059e-006
Heightened Def Con from 1.24059e-006 to 1.24059e-006
Heightened Def Con from 1.24059e-006 to 1.24059e-006
Heightened Def Con from 1.24059e-006 +to 1.24059e-006
Heightened Def Con from 1.24059e-006 to 1.24059e-006
Heightened Def Con from 1.24059e-006 to 1.24059e-006
Heightened Def Con from 1.24059e-006 to 1.24059e-006
Heightened Def Con from 1.24059e-006 +to 1.24059e-006
Heightened Def Con from 1.24059e-006 to 1.24059e-006
Heightened Def Con from 1.24059e-006 to 1.24059e-006
Heightened Def Con from 1.24059e-006 to 1.24059e-006
Heightened Def Con from 1.24059e-006 to 1.24059e-006
Heightened Def Con from 1.24059e-006 +to 1.24059e-006
Heightened Def Con from 1.24059e-006 to 1.24059e-006
Heightened Def Con from 1.24059e-006 +to 1.24059e-006
Heightened Def Con from 1.24059e-006 to 1.24059e-006
Heightened Def Con from 1.24059e-006 to 1.24059e-006
Heightened Def Con from 1.24059e-006 to 1.24059e-006
Heightened Def Con from 1.24059e-006 to 1.24059e-006
Heightened Def Con from 1.24059e-006 to 1.24059e-006
Heightened Def Con from 1.24059e-006 to 1.2406e-006
Heightened Def Con from 1.2406e-006 to 1.2406e-006
Heightened Def Con from 1.2406e-006 to 1.2406e-006
Heightened Def Con from 1.2406e-006 to 1.2406e-006
Heightened Def Con from 1.2406e-006 to 1.2406e-006
Heightened Def Con from 1.2406e-006 +to 1.2406e-006
Heightened Def Con from 1.2406e-006 to 1.2406e-006
Heightened Def Con from 1.2406e-006 to 1.2406e-006
Heightened Def Con from 1.2406e-006 to 1.2406e-006
Heightened Def Con from 1.2406e-006 to 1.2406e-006
Heightened Def Con from 1.2406e-006 to 1.2406e-006
Heightened Def Con from 1.2406e-006 to 1.2406e-006
Heightened Def Con from 1.2406e-006 to 1.2406e-006
Heightened Def Con from 1.2406e-006 to 1.2406e-006
Heightened Def Con from 1.2406e-006 +to 1.2406e-006
Heightened Def Con from 1.2406e-006 to 1.2406e-006
Heightened Def Con from 1.2406e-006 to 1.2406e-006
Heightened Def Con from 1.2406e-006 to 1.24072e-006
Heightened Def Con from 1.24072e-006 to 1.24072e-006
Heightened Def Con from 1.24072e-006 to 1.24072e-006
Heightened Def Con from 1.24072e-006 to 1.24072e-006
Heightened Def Con from 1.24072e-006 to 1.24072e-006
Heightened Def Con from 1.24072e-006 to 1.24072e-006
Heightened Def Con from 1.24072e-006 to 1.24072e-006
Heightened Def Con from 1.24072e-006 to 1.24072e-006
Heightened Def Con from 1.24072e-006 to 1.24072e-006
Heightened Def Con from 1.24072e-006 to 1.24072e-006
Heightened Def Con from 1.24072e-006 to 1.24072e-006
Heightened Def Con from 1.24072e-006 to 1.24072e-006
Heightened Def Con from 1.24072e-006 to 1.24072e-006
Heightened Def Con from 1.24072e-006 to 1.24072e-006
Heightened Def Con from 1.24072e-006 to 1.24072e-006
Heightened Def Con from 1.24072e-006 to 1.24072e-006
Heightened Def Con from 1.24072e-006 to 1.24072e-006
Heightened Def Con from 1.24072e-006 to 1.24072e-006
Heightened Def Con from 1.24072e-006 to 1.24072e-006
Heightened Def Con from 1.24072e-006 +to 1.24072e-006
Heightened Def Con from 1.24072e-006 to 1.24072e-006
Heightened Def Con from 1.24072e-006 to 1.24072e-006
Heightened Def Con from 1.24072e-006 to 1.24072e-006
Heightened Def Con from 1.24072e-006 +to 1.24072e-006
Heightened Def Con from 1.24072e-006 to 1.24072e-006
Heightened Def Con from 1.24072e-006 to 1.24072e-006
Heightened Def Con from 1.24072e-006 to 1.24072e-006
Heightened Def Con from 1.24072e-006 to 1.24072e-006
Heightened Def Con from 1.24072e-006 to 1.24072e-006
Heightened Def Con from 1.24072e-006 to 1.24072e-006
Heightened Def Con from 1.24072e-006 to 1.24072e-006
Heightened Def Con from 1.24072e-006 to 1.24072e-006
Heightened Def Con from 1.24072e-006 to 1.24072e-006
Heightened Def Con from 1.24072e-006 to 1.24072e-006
Heightened Def Con from 1.24072e-006 to 1.24072e-006
Heightened Def Con from 1.24072e-006 to 1.24072e-006
Heightened Def Con from 1.24072e-006 to 1.24072e-006
Heightened Def Con from 1.24072e-006 to 1.24072e-006
Heightened Def Con from 1.24072e-006 to 1.24072e-006
Heightened Def Con from 1.24072e-006 to 1.24072e-006
Heightened Def Con from 1.24072e-006 to 1.24072e-006
Heightened Def Con from 1.24072e-006 +to 1.24072e-006
Heightened Def Con from 1.24072e-006 to 1.24072e-006
Heightened Def Con from 1.24072e-006 to 1.24072e-006
Heightened Def Con from 1.24072e-006 +to 1.24072e-006
Heightened Def Con from 1.24072e-006 to 1.24072e-006
Heightened Def Con from 1.24072e-006 to 1.24072e-006
Heightened Def Con from 1.24072e-006 to 1.24072e-006
Heightened Def Con from 1.24072e-006 to 1.24072e-006
Heightened Def Con from 1.24072e-006 to 1.24072e-006
Heightened Def Con from 1.24072e-006 to 1.24072e-006
Heightened Def Con from 1.24072e-006 +to 1.24072e-006
Heightened Def Con from 1.24072e-006 to 1.24072e-006
Heightened Def Con from 1.24072e-006 to 1.24072e-006
Heightened Def Con from 1.24072e-006 to 1.24072e-006
Heightened Def Con from 1.24072e-006 to 1.24072e-006
Heightened Def Con from 1.24072e-006 to 1.24072e-006
Heightened Def Con from 1.24072e-006 to 1.24085e-006
Heightened Def Con from 1.24085e-006 to 1.24085e-006
Heightened Def Con from 1.24085e-006 to 1.24085e-006
Heightened Def Con from 1.24085e-006 to 1.24085e-006
Heightened Def Con from 1.24085e-006 to 1.24085e-006
Heightened Def Con from 1.24085e-006 to 1.24085e-006
Heightened Def Con from 1.24085e-006 to 1.24085e-006
Heightened Def Con from 1.24085e-006 to 1.24085e-006
Heightened Def Con from 1.24085e-006 +to 1.24085e-006
Heightened Def Con from 1.24085e-006 to 1.24085e-006
Heightened Def Con from 1.24085e-006 to 1.24085e-006
Heightened Def Con from 1.24085e-006 to 1.24085e-006
Heightened Def Con from 1.24085e-006 +to 1.24085e-006
Heightened Def Con from 1.24085e-006 to 1.24085e-006
Heightened Def Con from 1.24085e-006 to 1.24085e-006
Heightened Def Con from 1.24085e-006 +to 1.24085e-006
Heightened Def Con from 1.24085e-006 to 1.24085e-006
Heightened Def Con from 1.24085e-006 to 1.24085e-006
Heightened Def Con from 1.24085e-006 to 1.24085e-006
Heightened Def Con from 1.24085e-006 to 1.24085e-006
Heightened Def Con from 1.24085e-006 to 1.24085e-006
Heightened Def Con from 1.24085e-006 +to 1.24085e-006
Heightened Def Con from 1.24085e-006 to 1.24085e-006
Heightened Def Con from 1.24085e-006 to 1.24085e-006
Heightened Def Con from 1.24085e-006 +to 1.24085e-006
Heightened Def Con from 1.24085e-006 to 1.24085e-006
Heightened Def Con from 1.24085e-006 to 1.24085e-006
Heightened Def Con from 1.24085e-006 to 1.24085e-006
Heightened Def Con from 1.24085e-006 to 1.24085e-006
Heightened Def Con from 1.24085e-006 +to 1.24085e-006
Heightened Def Con from 1.24085e-006 to 1.24085e-006
Heightened Def Con from 1.24085e-006 to 1.24085e-006
Heightened Def Con from 1.24085e-006 +to 1.24085e-006
Heightened Def Con from 1.24085e-006 to 1.24085e-006
Heightened Def Con from 1.24085e-006 to 1.24085e-006
Heightened Def Con from 1.24085e-006 to 1.24085e-006
Heightened Def Con from 1.24085e-006 to 1.24085e-006
Heightened Def Con from 1.24085e-006 to 1.24085e-006
Heightened Def Con from 1.24085e-006 to 1.24085e-006
Heightened Def Con from 1.24085e-006 to 1.24085e-006
Heightened Def Con from 1.24085e-006 to 1.24085e-006
Heightened Def Con from 1.24085e-006 to 1.24085e-006
Heightened Def Con from 1.24085e-006 to 1.24085e-006
Heightened Def Con from 1.24085e-006 to 1.24085e-006
Heightened Def Con from 1.24085e-006 to 1.24085e-006
Heightened Def Con from 1.24085e-006 to 1.24085e-006
Heightened Def Con from 1.24085e-006 to 1.24085e-006
Heightened Def Con from 1.24085e-006 to 1.24085e-006
Heightened Def Con from 1.24085e-006 ++to 1.24085e-006
Heightened Def Con from 1.24085e-006 to 1.24085e-006
Heightened Def Con from 1.24085e-006 to 1.24085e-006
Heightened Def Con from 1.24085e-006 to 1.24085e-006
Heightened Def Con from 1.24085e-006 to 1.24085e-006
Heightened Def Con from 1.24085e-006 to 1.24085e-006
Heightened Def Con from 1.24085e-006 to 1.24085e-006
Heightened Def Con from 1.24085e-006 to 1.24099e-006
Heightened Def Con from 1.24099e-006 to 1.24099e-006
Heightened Def Con from 1.24099e-006 to 1.24099e-006
Heightened Def Con from 1.24099e-006 to 1.24099e-006
Heightened Def Con from 1.24099e-006 to 1.24099e-006
Heightened Def Con from 1.24099e-006 to 1.24099e-006
Heightened Def Con from 1.24099e-006 +to 1.24099e-006
Heightened Def Con from 1.24099e-006 to 1.24099e-006
Heightened Def Con from 1.24099e-006 to 1.24099e-006
Heightened Def Con from 1.24099e-006 to 1.24099e-006
Heightened Def Con from 1.24099e-006 to 1.24099e-006
Heightened Def Con from 1.24099e-006 to 1.24099e-006
Heightened Def Con from 1.24099e-006 to 1.24099e-006
Heightened Def Con from 1.24099e-006 to 1.24099e-006
Heightened Def Con from 1.24099e-006 to 1.24099e-006
Heightened Def Con from 1.24099e-006 to 1.24099e-006
Heightened Def Con from 1.24099e-006 to 1.24099e-006
Heightened Def Con from 1.24099e-006 to 1.24099e-006
Heightened Def Con from 1.24099e-006 +to 1.24099e-006
Heightened Def Con from 1.24099e-006 to 1.24099e-006
Heightened Def Con from 1.24099e-006 to 1.24099e-006
Heightened Def Con from 1.24099e-006 to 1.24099e-006
Heightened Def Con from 1.24099e-006 to 1.24099e-006
Heightened Def Con from 1.24099e-006 to 1.241e-006
Heightened Def Con from 1.241e-006 to 1.241e-006
Heightened Def Con from 1.241e-006 to 1.241e-006
Heightened Def Con from 1.241e-006 to 1.241e-006
Heightened Def Con from 1.241e-006 to 1.241e-006
Heightened Def Con from 1.241e-006 to 1.241e-006
Heightened Def Con from 1.241e-006 to 1.241e-006
Heightened Def Con from 1.241e-006 to 1.241e-006
Heightened Def Con from 1.241e-006 to 1.241e-006
Heightened Def Con from 1.241e-006 to 1.241e-006
Heightened Def Con from 1.241e-006 to 1.241e-006
Heightened Def Con from 1.241e-006 to 1.241e-006
Heightened Def Con from 1.241e-006 to 1.241e-006
Heightened Def Con from 1.241e-006 +to 1.241e-006
Heightened Def Con from 1.241e-006 to 1.241e-006
Heightened Def Con from 1.241e-006 to 1.241e-006
Heightened Def Con from 1.241e-006 to 1.241e-006
Heightened Def Con from 1.241e-006 to 1.241e-006
Heightened Def Con from 1.241e-006 to 1.241e-006
Heightened Def Con from 1.241e-006 to 1.241e-006
Heightened Def Con from 1.241e-006 to 1.241e-006

Date: Sat May 13 16:03:34 2023
Total elapsed time: 56.336 seconds.

tnom = 27
temp = 27
method = modified trap
totiter = 10214386
traniter = 10211653
tranpoints = 1153420
accept = 448837
rejected = 760101
matrix size = 36
fillins = 42
solver = Normal
Matrix Compiler1:     215 opcodes  1.2/[0.5]/1.4
Matrix Compiler2: off  [0.5]/0.6/0.5

