Circuit: * C:\users\leonardo\Desktop\FSAE\inverter-simulation\test_LV.asc

.OP point found by inspection.

Date: Fri May 12 21:24:28 2023
Total elapsed time: 0.027 seconds.

tnom = 27
temp = 27
method = modified trap
totiter = 2048
traniter = 2048
tranpoints = 1025
accept = 1025
rejected = 0
matrix size = 4
fillins = 0
solver = Normal
Matrix Compiler1: 118 bytes object code size  0.1/0.1/[0.1]
Matrix Compiler2: 242 bytes object code size  0.1/0.1/[0.1]

