Circuit: * C:\users\leonardo\Desktop\FSAE\inverter-simulation\parallel-shit\testigbt.asc

Limiting rise time of source v1 to 0.01
Limiting fall time of source v1 to 0.01
Direct Newton iteration failed to find .op point.  (Use ".option noopiter" to skip.)
Starting Gmin stepping
Gmin = 10
Gmin = 1.07374
Gmin = 0.115292
Gmin = 0.0123794
Gmin = 0.00132923
Gmin = 0.000142725
Gmin = 1.5325e-005
Gmin = 1.6455e-006
Gmin = 1.76685e-007
Gmin = 1.89714e-008
Gmin = 2.03704e-009
vernier = 0.5
vernier = 0.25
vernier = 0.125
vernier = 0.0625
Gmin = 2.12286e-009
vernier = 0.0833333
vernier = 0.0416667
Gmin = 1.88495e-009
vernier = 0.0208333
vernier = 0.0104167
Gmin = 1.80831e-009
vernier = 0.00520833
vernier = 0.00260417
vernier = 0.00130208
vernier = 0.000651042
Gmin = 1.80069e-009
vernier = 0.000868055
vernier = 0.000434028
Gmin = 0
Gmin stepping failed

Starting source stepping with srcstepmethod=0
Source Step = 3.0303%
Source Step = 33.3333%
Source Step = 46.2121%
vernier = 0.015625
Source Step = 46.1441%
Source Step = 46.1737%
Source Step = 46.2032%
Source Step = 46.2328%
Source Step = 46.2624%
Source Step = 46.292%
vernier = 0.00146484
Source Step = 46.3364%
Source Step = 46.3808%
Source Step = 46.4252%
Source Step = 46.4696%
Source Step = 46.514%
vernier = 0.00219727
Source Step = 46.5783%
Source Step = 46.6449%
Source Step = 46.7115%
Source Step = 46.7781%
Source Step = 46.8447%
vernier = 0.0032959
Source Step = 46.9379%
Source Step = 47.0378%
Source Step = 47.1376%
Source Step = 47.2375%
Source Step = 47.3374%
vernier = 0.00494385
Source Step = 47.4722%
Source Step = 47.622%
Source Step = 47.7718%
Source Step = 47.9217%
Source Step = 48.0715%
vernier = 0.00741577
Source Step = 48.2662%
Source Step = 48.491%
Source Step = 48.7157%
Source Step = 48.9404%
Source Step = 49.1651%
vernier = 0.0111237
Source Step = 49.446%
Source Step = 49.7831%
Source Step = 50.1202%
Source Step = 50.4573%
Source Step = 50.7943%
vernier = 0.0166855
Source Step = 51.1988%
Source Step = 51.7045%
Source Step = 52.2101%
Source Step = 52.7157%
Source Step = 53.2213%
vernier = 0.0250282
Source Step = 53.8028%
Source Step = 54.5612%
Source Step = 55.3196%
Source Step = 56.0781%
Source Step = 56.8365%
vernier = 0.0375423
Source Step = 57.6708%
Source Step = 58.8084%
Source Step = 59.9461%
Source Step = 61.0837%
Source Step = 62.2214%
vernier = 0.0563135
Source Step = 63.4159%
Source Step = 65.1224%
Source Step = 66.8288%
Source Step = 68.5353%
Source Step = 70.2418%
Source Step = 71.9482%
vernier = 0.0844703
Source Step = 74.508%
Source Step = 77.0677%
Source Step = 79.6274%
Source Step = 82.1871%
Source Step = 84.7468%
vernier = 0.126705
Source Step = 88.4583%
Source Step = 92.2979%
Source Step = 96.1375%
Source Step = 99.977%
Source stepping succeeded in finding the operating point.

Changing Tseed to 9.76562e-010
Changing Tseed to 9.76562e-012
Changing Tseed to 9.76562e-009
Changing Tseed to 9.76562e-013
Changing Tseed to 9.76563e-008
Changing Tseed to 9.76563e-014
Changing Tseed to 9.76563e-007
Changing Tseed to 9.76562e-015
Changing Tseed to 9.76562e-006
Changing Tseed to 9.76562e-016
Changing Tseed to 9.76563e-005
Changing Tseed to 9.76562e-017
Heightened Def Con from 3.07329e-017 to 3.84543e-015
Heightened Def Con from 3.91362e-015 to 7.72832e-015
Heightened Def Con from 1.14596e-013 to 1.18411e-013
Heightened Def Con from 1.94705e-013 to 1.95182e-013
Heightened Def Con from 1.95199e-013 to 1.99014e-013
Heightened Def Con from 2.21914e-013 to 2.56247e-013
Heightened Def Con from 3.86015e-013 to 4.20348e-013
Heightened Def Con from 4.96642e-013 to 5.00456e-013
Heightened Def Con from 5.1047e-013 to 5.14285e-013
Heightened Def Con from 5.41002e-013 +to 2.49413e-012
Heightened Def Con from 2.74211e-012 to 2.74259e-012
Heightened Def Con from 2.74262e-012 to 2.77695e-012
Heightened Def Con from 2.78655e-012 to 2.81706e-012
Heightened Def Con from 3.37783e-012 to 3.38164e-012
Heightened Def Con from 3.43505e-012 to 3.46557e-012
Heightened Def Con from 3.70714e-012 to 3.71096e-012
Heightened Def Con from 3.76556e-012 to 3.76938e-012
Heightened Def Con from 3.83949e-012 to 3.87382e-012
Heightened Def Con from 3.87387e-012 to 3.87768e-012
Heightened Def Con from 3.88722e-012 to 3.94826e-012
Heightened Def Con from 4.18979e-012 to 4.1936e-012
Heightened Def Con from 4.24701e-012 to 4.24748e-012
Heightened Def Con from 4.24749e-012 to 4.28182e-012
Heightened Def Con from 4.66521e-012 to 4.66902e-012
Heightened Def Con from 4.66902e-012 to 4.67284e-012
Heightened Def Con from 4.75306e-012 to 4.78358e-012
Heightened Def Con from 4.79122e-012 to 4.79503e-012
Heightened Def Con from 4.79515e-012 to 4.79897e-012
Heightened Def Con from 4.80663e-012 to 4.81044e-012
Heightened Def Con from 4.83382e-012 to 4.83764e-012
Heightened Def Con from 4.85196e-012 to 4.85577e-012
Heightened Def Con from 5.04228e-012 to 5.04276e-012
Heightened Def Con from 5.04276e-012 to 5.04657e-012
Heightened Def Con from 5.05149e-012 to 5.0553e-012
Heightened Def Con from 5.15712e-012 to 5.16094e-012
Heightened Def Con from 5.27061e-012 to 5.27443e-012
Heightened Def Con from 5.2753e-012 to 5.27911e-012
Heightened Def Con from 5.27911e-012 to 5.28293e-012
Heightened Def Con from 5.30963e-012 to 1.3031e-010
Heightened Def Con from 1.3108e-010 to 1.3108e-010
Heightened Def Con from 1.31115e-010 to 1.31119e-010
Heightened Def Con from 1.31173e-010 to 1.3142e-010
Heightened Def Con from 1.31422e-010 to 1.31452e-010
Heightened Def Con from 1.31941e-010 to 1.31941e-010
Heightened Def Con from 1.32075e-010 to 1.32076e-010
Heightened Def Con from 1.32091e-010 to 1.32121e-010
Heightened Def Con from 1.32463e-010 to 1.32494e-010
Heightened Def Con from 1.32798e-010 to 1.32833e-010
Heightened Def Con from 1.32856e-010 to 1.3286e-010
Heightened Def Con from 1.33001e-010 to 1.33002e-010
Heightened Def Con from 1.33003e-010 to 1.33007e-010
Heightened Def Con from 1.33089e-010 to 1.3309e-010
Heightened Def Con from 1.33184e-010 to 1.33188e-010
Heightened Def Con from 1.33198e-010 to 1.33198e-010
Heightened Def Con from 1.33198e-010 to 1.33199e-010
Heightened Def Con from 1.33202e-010 to 1.33232e-010
Heightened Def Con from 1.33244e-010 to 1.33244e-010
Heightened Def Con from 1.33244e-010 to 1.33244e-010
Heightened Def Con from 1.33245e-010 to 1.33249e-010
Heightened Def Con from 1.33384e-010 to 1.33628e-010
Heightened Def Con from 1.33655e-010 to 1.33658e-010
Heightened Def Con from 1.33693e-010 to 1.33723e-010
Heightened Def Con from 1.33826e-010 to 1.33827e-010
Heightened Def Con from 1.33828e-010 to 1.33832e-010
Heightened Def Con from 1.33841e-010 to 1.33845e-010
Heightened Def Con from 1.33869e-010 to 1.33899e-010
Heightened Def Con from 1.3438e-010 to 1.3441e-010
Heightened Def Con from 1.347e-010 to 1.34704e-010
Heightened Def Con from 1.34738e-010 to 1.34768e-010
Heightened Def Con from 1.3491e-010 to 1.34914e-010
Heightened Def Con from 1.34969e-010 to 1.34969e-010
Heightened Def Con from 1.34969e-010 to 1.3497e-010
Heightened Def Con from 1.34971e-010 to 2.60215e-010
Heightened Def Con from 2.6075e-010 to 2.6075e-010
Heightened Def Con from 2.6075e-010 to 2.60785e-010
Heightened Def Con from 2.61142e-010 to 2.61177e-010
Heightened Def Con from 2.6131e-010 to 2.61341e-010
Heightened Def Con from 2.61405e-010 to 2.61409e-010
Heightened Def Con from 2.61464e-010 to 2.61467e-010
Heightened Def Con from 2.61626e-010 to 2.6163e-010
Heightened Def Con from 2.6164e-010 to 2.61884e-010
Heightened Def Con from 2.62129e-010 +to 2.62159e-010
Heightened Def Con from 2.62247e-010 to 2.62251e-010
Heightened Def Con from 2.62441e-010 to 2.62444e-010
Heightened Def Con from 2.62529e-010 to 2.62533e-010
Heightened Def Con from 2.6255e-010 to 2.62554e-010
Heightened Def Con from 2.62583e-010 to 2.62827e-010
Heightened Def Con from 2.62846e-010 to 2.62846e-010
Heightened Def Con from 2.62846e-010 to 2.62877e-010
Heightened Def Con from 2.63261e-010 to 2.63265e-010
Heightened Def Con from 2.63321e-010 to 2.63352e-010
Heightened Def Con from 2.63353e-010 +to 2.63383e-010
Heightened Def Con from 2.6346e-010 to 2.6349e-010
Heightened Def Con from 2.63727e-010 to 2.63728e-010
Heightened Def Con from 2.63731e-010 to 2.63975e-010
Heightened Def Con from 2.64729e-010 to 2.6476e-010
Heightened Def Con from 2.64847e-010 to 2.64878e-010
Heightened Def Con from 2.64886e-010 to 2.6489e-010
Heightened Def Con from 2.6499e-010 to 2.64994e-010
Heightened Def Con from 2.64994e-010 to 2.64997e-010
Heightened Def Con from 2.65234e-010 to 2.65269e-010
Heightened Def Con from 2.6527e-010 to 2.65274e-010
Heightened Def Con from 2.65309e-010 to 2.65313e-010
Heightened Def Con from 2.65401e-010 to 2.65405e-010
Heightened Def Con from 2.65418e-010 to 2.65449e-010
Heightened Def Con from 2.65858e-010 to 2.65888e-010
Heightened Def Con from 2.65888e-010 to 2.65892e-010
Heightened Def Con from 2.66062e-010 to 2.66307e-010
Heightened Def Con from 2.66343e-010 to 2.66347e-010
Heightened Def Con from 2.66495e-010 to 2.66499e-010
Heightened Def Con from 2.66554e-010 to 2.66554e-010
Heightened Def Con from 2.66555e-010 to 2.66559e-010
Heightened Def Con from 2.66559e-010 to 2.66563e-010
Heightened Def Con from 2.6675e-010 to 2.66811e-010
Heightened Def Con from 2.66985e-010 to 2.66989e-010
Heightened Def Con from 2.67005e-010 +to 2.67249e-010
Heightened Def Con from 2.67333e-010 +to 2.67577e-010
Heightened Def Con from 2.676e-010 to 2.67634e-010
Heightened Def Con from 2.67659e-010 to 2.67662e-010
Heightened Def Con from 2.67735e-010 to 2.67739e-010
Heightened Def Con from 2.67747e-010 to 2.67751e-010
Heightened Def Con from 2.67804e-010 to 2.67805e-010
Heightened Def Con from 2.67806e-010 to 2.6781e-010
Heightened Def Con from 2.67833e-010 to 2.67833e-010
Heightened Def Con from 2.67833e-010 +to 2.67864e-010
Heightened Def Con from 2.67973e-010 to 2.67974e-010
Heightened Def Con from 2.67974e-010 to 2.67974e-010
Heightened Def Con from 2.67974e-010 to 3.92978e-010
Heightened Def Con from 3.93254e-010 to 3.93502e-010
Heightened Def Con from 3.93958e-010 to 3.93962e-010
Heightened Def Con from 3.93973e-010 to 3.93977e-010
Heightened Def Con from 3.94097e-010 to 3.941e-010
Heightened Def Con from 3.94284e-010 to 1.39428e-009
Heightened Def Con from 1.39428e-009 to 1.39428e-009
Heightened Def Con from 1.39428e-009 to 1.39428e-009
Heightened Def Con from 1.39428e-009 +to 1.39432e-009
Heightened Def Con from 1.39458e-009 +to 1.39459e-009
Heightened Def Con from 1.39506e-009 to 1.39512e-009
Heightened Def Con from 1.39541e-009 to 1.39544e-009
Heightened Def Con from 1.3956e-009 to 1.39561e-009
Heightened Def Con from 1.39564e-009 to 1.39564e-009
Heightened Def Con from 1.39564e-009 to 1.39567e-009
Heightened Def Con from 1.396e-009 to 1.39603e-009
Heightened Def Con from 1.3962e-009 to 1.39621e-009
Heightened Def Con from 1.39649e-009 +to 1.39674e-009
Heightened Def Con from 1.3968e-009 to 1.3968e-009
Heightened Def Con from 1.3968e-009 to 1.39683e-009
Heightened Def Con from 1.39751e-009 to 1.39751e-009
Heightened Def Con from 1.39751e-009 to 1.39754e-009
Heightened Def Con from 1.3977e-009 to 1.39773e-009
Heightened Def Con from 1.39776e-009 to 1.39776e-009
Heightened Def Con from 1.39777e-009 to 1.3978e-009
Heightened Def Con from 1.3978e-009 to 1.39781e-009
Heightened Def Con from 1.39799e-009 to 1.39799e-009
Heightened Def Con from 1.39804e-009 to 1.39805e-009
Heightened Def Con from 1.39807e-009 to 1.39807e-009
Heightened Def Con from 1.39808e-009 to 1.39811e-009
Heightened Def Con from 1.39867e-009 to 1.3987e-009
Heightened Def Con from 1.39878e-009 to 1.39878e-009
Heightened Def Con from 1.39879e-009 to 1.39879e-009
Heightened Def Con from 1.39879e-009 to 1.39882e-009
Heightened Def Con from 1.39907e-009 to 1.39907e-009
Heightened Def Con from 1.39907e-009 +to 1.3991e-009
Heightened Def Con from 1.39927e-009 to 1.39928e-009
Heightened Def Con from 1.39961e-009 to 1.39964e-009
Heightened Def Con from 1.39982e-009 to 1.39986e-009
Heightened Def Con from 1.39992e-009 to 1.39992e-009
Heightened Def Con from 1.39992e-009 to 1.39993e-009
Heightened Def Con from 1.40035e-009 to 1.40036e-009
Heightened Def Con from 1.40038e-009 ++to 1.40039e-009
Heightened Def Con from 1.40066e-009 to 1.40067e-009
Heightened Def Con from 1.40082e-009 to 1.40082e-009
Heightened Def Con from 1.40082e-009 to 1.40083e-009
Heightened Def Con from 1.40083e-009 to 1.40083e-009
Heightened Def Con from 1.40084e-009 to 1.40085e-009
Heightened Def Con from 1.40085e-009 to 1.40085e-009
Heightened Def Con from 1.40085e-009 to 1.40088e-009
Heightened Def Con from 1.40088e-009 to 1.40112e-009
Heightened Def Con from 1.40124e-009 to 1.40124e-009
Heightened Def Con from 1.40124e-009 to 1.40127e-009
Heightened Def Con from 1.4013e-009 to 1.4013e-009
Heightened Def Con from 1.4013e-009 to 1.4013e-009
Heightened Def Con from 1.4013e-009 to 1.40134e-009
Heightened Def Con from 1.40144e-009 to 1.40148e-009
Heightened Def Con from 1.40164e-009 to 1.40164e-009
Heightened Def Con from 1.40164e-009 to 1.40165e-009
Heightened Def Con from 1.40165e-009 to 1.40168e-009
Heightened Def Con from 1.40168e-009 ++to 1.40192e-009
Heightened Def Con from 1.40297e-009 to 1.40297e-009
Heightened Def Con from 1.40297e-009 to 1.403e-009
Heightened Def Con from 1.403e-009 to 1.40303e-009
Heightened Def Con from 1.40328e-009 to 1.40328e-009
Heightened Def Con from 1.40328e-009 to 1.40332e-009
Heightened Def Con from 1.40332e-009 to 1.40332e-009
Heightened Def Con from 1.40341e-009 to 1.40341e-009
Heightened Def Con from 1.40352e-009 to 1.40355e-009
Heightened Def Con from 1.40368e-009 to 1.40371e-009
Heightened Def Con from 1.40376e-009 to 1.40376e-009
Heightened Def Con from 1.40379e-009 to 1.40379e-009
Heightened Def Con from 1.40425e-009 to 1.40425e-009
Heightened Def Con from 1.40425e-009 to 1.40428e-009
Heightened Def Con from 1.40436e-009 +to 1.40437e-009
Heightened Def Con from 1.40437e-009 to 1.40437e-009
Heightened Def Con from 1.40443e-009 ++to 1.40443e-009
Heightened Def Con from 1.40453e-009 to 1.40457e-009
Heightened Def Con from 1.40513e-009 to 1.40514e-009
Heightened Def Con from 1.40514e-009 to 1.40514e-009
Heightened Def Con from 1.40514e-009 to 1.4052e-009
Heightened Def Con from 1.40521e-009 to 1.42087e-009
Heightened Def Con from 1.42175e-009 to 1.42175e-009
Heightened Def Con from 1.42191e-009 to 1.42191e-009
Heightened Def Con from 1.42191e-009 to 1.42192e-009
Heightened Def Con from 1.42198e-009 to 1.42222e-009
Heightened Def Con from 1.42233e-009 to 1.42233e-009
Heightened Def Con from 1.42233e-009 to 1.42234e-009
Heightened Def Con from 1.42256e-009 to 1.42256e-009
Heightened Def Con from 1.42264e-009 to 1.42264e-009
Heightened Def Con from 1.42291e-009 to 1.42294e-009
Heightened Def Con from 1.42295e-009 to 1.42295e-009
Heightened Def Con from 1.42352e-009 to 1.42353e-009
Heightened Def Con from 1.42353e-009 to 1.4238e-009
Heightened Def Con from 1.42447e-009 to 1.42448e-009
Heightened Def Con from 1.4245e-009 to 1.4245e-009
Heightened Def Con from 1.4245e-009 to 1.42451e-009
Heightened Def Con from 1.42458e-009 +to 1.42459e-009
Heightened Def Con from 1.42492e-009 to 1.42495e-009
Heightened Def Con from 1.42503e-009 to 1.42503e-009
Heightened Def Con from 1.42532e-009 to 1.42532e-009
Heightened Def Con from 1.42535e-009 to 1.42539e-009
Heightened Def Con from 1.42539e-009 +to 1.55039e-009
Heightened Def Con from 1.5512e-009 to 1.55121e-009
Heightened Def Con from 1.55124e-009 to 1.55127e-009
Heightened Def Con from 1.55153e-009 to 1.55178e-009
Heightened Def Con from 1.55203e-009 to 1.55204e-009
Heightened Def Con from 1.55206e-009 to 1.55206e-009
Heightened Def Con from 1.55207e-009 to 1.55207e-009
Heightened Def Con from 1.5522e-009 to 1.55224e-009
Heightened Def Con from 1.5526e-009 to 1.55266e-009
Heightened Def Con from 1.55283e-009 +to 1.55286e-009
Heightened Def Con from 1.55316e-009 to 1.55319e-009
Heightened Def Con from 1.5534e-009 to 1.55341e-009
Heightened Def Con from 1.55343e-009 to 1.55343e-009
Heightened Def Con from 1.55351e-009 to 1.55351e-009
Heightened Def Con from 1.55363e-009 to 1.55363e-009
Heightened Def Con from 1.55376e-009 to 1.55382e-009
Heightened Def Con from 1.55383e-009 to 1.55384e-009
Heightened Def Con from 1.55384e-009 to 1.55384e-009
Heightened Def Con from 1.55384e-009 to 1.55384e-009
Heightened Def Con from 1.5539e-009 to 1.5539e-009
Heightened Def Con from 1.55392e-009 to 1.55393e-009
Heightened Def Con from 1.55395e-009 to 1.55395e-009
Heightened Def Con from 1.55398e-009 to 1.55594e-009
Heightened Def Con from 1.55599e-009 to 1.55599e-009
Heightened Def Con from 1.55599e-009 to 1.55599e-009
Heightened Def Con from 1.556e-009 to 1.55603e-009
Heightened Def Con from 1.55603e-009 to 1.55603e-009
Heightened Def Con from 1.55641e-009 to 1.55641e-009
Heightened Def Con from 1.55647e-009 to 1.55647e-009
Heightened Def Con from 1.55681e-009 to 1.55684e-009
Heightened Def Con from 1.55685e-009 to 1.55685e-009
Heightened Def Con from 1.55686e-009 to 1.55689e-009
Heightened Def Con from 1.5569e-009 to 1.5569e-009
Heightened Def Con from 1.5569e-009 to 1.5569e-009
Heightened Def Con from 1.5569e-009 to 1.5569e-009
Heightened Def Con from 1.55691e-009 +to 1.55694e-009
Heightened Def Con from 1.55704e-009 to 1.55704e-009
Heightened Def Con from 1.55716e-009 to 1.55716e-009
Heightened Def Con from 1.55727e-009 to 1.55727e-009
Heightened Def Con from 1.55727e-009 to 1.55727e-009
Heightened Def Con from 1.55727e-009 to 1.5573e-009
Heightened Def Con from 1.55743e-009 to 1.55746e-009
Heightened Def Con from 1.55773e-009 to 1.55773e-009
Heightened Def Con from 1.55777e-009 to 1.5578e-009
Heightened Def Con from 1.55787e-009 to 1.55787e-009
Heightened Def Con from 1.55788e-009 +to 1.55788e-009
Heightened Def Con from 1.55831e-009 to 1.55831e-009
Heightened Def Con from 1.55831e-009 to 1.55831e-009
Heightened Def Con from 1.55831e-009 to 1.55831e-009
Heightened Def Con from 1.5584e-009 to 1.55843e-009
Heightened Def Con from 1.55843e-009 +to 1.55847e-009
Heightened Def Con from 1.55871e-009 to 1.55871e-009
Heightened Def Con from 1.55871e-009 to 1.55871e-009
Heightened Def Con from 1.55871e-009 to 1.55875e-009
Heightened Def Con from 1.55877e-009 to 1.55877e-009
Heightened Def Con from 1.55878e-009 to 1.55878e-009
Heightened Def Con from 1.55878e-009 +to 1.55878e-009
Heightened Def Con from 1.55881e-009 to 1.55881e-009
Heightened Def Con from 1.55881e-009 +to 1.55881e-009
Heightened Def Con from 1.55883e-009 to 1.55883e-009
Heightened Def Con from 1.55883e-009 to 1.55883e-009
Heightened Def Con from 1.55883e-009 to 1.55886e-009
Heightened Def Con from 1.55886e-009 +to 1.55886e-009
Heightened Def Con from 1.55935e-009 to 1.55938e-009
Heightened Def Con from 1.55938e-009 to 1.55941e-009
Heightened Def Con from 1.55947e-009 to 1.55947e-009
Heightened Def Con from 1.55947e-009 to 1.55947e-009
Heightened Def Con from 1.55983e-009 to 1.55984e-009
Heightened Def Con from 1.55986e-009 to 1.55986e-009
Heightened Def Con from 1.55986e-009 to 1.55987e-009
Heightened Def Con from 1.55987e-009 to 1.56185e-009
Heightened Def Con from 1.56191e-009 to 1.56191e-009
Heightened Def Con from 1.56193e-009 to 1.56193e-009
Heightened Def Con from 1.56199e-009 +to 1.56202e-009
Heightened Def Con from 1.56202e-009 to 1.56202e-009
Heightened Def Con from 1.56208e-009 to 1.56208e-009
Heightened Def Con from 1.56208e-009 to 1.56208e-009
Heightened Def Con from 1.56208e-009 to 1.56208e-009
Heightened Def Con from 1.56208e-009 to 1.56233e-009
Heightened Def Con from 1.56236e-009 to 1.56239e-009
Heightened Def Con from 1.56239e-009 to 1.56239e-009
Heightened Def Con from 1.56239e-009 to 1.56239e-009
Heightened Def Con from 1.56308e-009 to 1.56311e-009
Heightened Def Con from 1.56311e-009 to 1.56311e-009
Heightened Def Con from 1.56311e-009 to 1.56312e-009
Heightened Def Con from 1.56314e-009 to 1.56314e-009
Heightened Def Con from 1.56314e-009 to 1.56314e-009
Heightened Def Con from 1.56314e-009 to 1.56314e-009
Heightened Def Con from 1.56314e-009 to 1.56317e-009
Heightened Def Con from 1.5632e-009 to 1.5632e-009
Heightened Def Con from 1.5632e-009 to 1.56321e-009
Heightened Def Con from 1.56366e-009 to 1.56366e-009
Heightened Def Con from 1.56366e-009 to 1.56366e-009
Heightened Def Con from 1.56366e-009 to 1.56367e-009
Heightened Def Con from 1.56382e-009 to 1.56383e-009
Heightened Def Con from 1.56383e-009 to 1.56384e-009
Heightened Def Con from 1.56384e-009 to 1.56384e-009
Heightened Def Con from 1.56384e-009 to 1.56387e-009
Heightened Def Con from 1.5643e-009 to 1.56436e-009
Heightened Def Con from 1.565e-009 to 1.56501e-009
Heightened Def Con from 1.56501e-009 to 1.56501e-009
Heightened Def Con from 1.56507e-009 to 1.56508e-009
Heightened Def Con from 1.56514e-009 to 1.56517e-009
Heightened Def Con from 1.56534e-009 to 1.56534e-009
Heightened Def Con from 1.56534e-009 to 1.56535e-009
Heightened Def Con from 1.56537e-009 to 1.56537e-009
Heightened Def Con from 1.56545e-009 to 1.56545e-009
Heightened Def Con from 1.56553e-009 to 1.56553e-009
Heightened Def Con from 1.56609e-009 to 1.5661e-009
Heightened Def Con from 1.56611e-009 to 1.56615e-009
Heightened Def Con from 1.56619e-009 +to 1.56619e-009
Heightened Def Con from 1.56644e-009 to 1.56648e-009
Heightened Def Con from 1.56648e-009 to 1.56648e-009
Heightened Def Con from 1.56649e-009 to 1.56649e-009
Heightened Def Con from 1.56682e-009 to 1.56682e-009
Heightened Def Con from 1.56682e-009 to 1.56683e-009
Heightened Def Con from 1.56696e-009 to 1.56699e-009
Heightened Def Con from 1.5671e-009 to 1.56906e-009
Heightened Def Con from 1.56906e-009 to 1.56906e-009
Heightened Def Con from 1.56906e-009 to 1.56931e-009
Heightened Def Con from 1.56934e-009 to 1.56934e-009
Heightened Def Con from 1.56934e-009 to 1.56937e-009
Heightened Def Con from 1.56953e-009 to 1.56956e-009
Heightened Def Con from 1.56956e-009 to 1.56956e-009
Heightened Def Con from 1.56957e-009 to 1.56957e-009
Heightened Def Con from 1.56957e-009 to 1.56958e-009
Heightened Def Con from 1.56958e-009 to 1.56958e-009
Heightened Def Con from 1.56958e-009 to 1.56958e-009
Heightened Def Con from 1.56958e-009 to 1.56961e-009
Heightened Def Con from 1.5697e-009 to 1.5697e-009
Heightened Def Con from 1.5697e-009 to 1.56971e-009
Heightened Def Con from 1.56971e-009 to 1.56974e-009
Heightened Def Con from 1.56974e-009 to 1.56974e-009
Heightened Def Con from 1.56974e-009 to 1.56975e-009
Heightened Def Con from 1.56977e-009 to 1.56977e-009
Heightened Def Con from 1.57002e-009 to 1.57002e-009
Heightened Def Con from 1.57002e-009 to 1.57002e-009
Heightened Def Con from 1.57003e-009 to 1.57003e-009
Heightened Def Con from 1.57007e-009 to 1.57007e-009
Heightened Def Con from 1.57008e-009 to 1.57008e-009
Heightened Def Con from 1.57008e-009 to 1.57008e-009
Heightened Def Con from 1.57008e-009 to 1.57008e-009
Heightened Def Con from 1.57009e-009 to 1.57009e-009
Heightened Def Con from 1.57075e-009 to 1.57078e-009
Heightened Def Con from 1.57078e-009 to 1.57081e-009
Heightened Def Con from 1.571e-009 to 1.57101e-009
Heightened Def Con from 1.5713e-009 to 1.57131e-009
Heightened Def Con from 1.57131e-009 to 1.57134e-009
Heightened Def Con from 1.57135e-009 to 1.57135e-009
Heightened Def Con from 1.57144e-009 to 1.57147e-009
Heightened Def Con from 1.5715e-009 to 1.57151e-009
Heightened Def Con from 1.57181e-009 +to 1.57182e-009
Heightened Def Con from 1.57188e-009 to 1.57188e-009
Heightened Def Con from 1.57191e-009 +to 1.57194e-009
Heightened Def Con from 1.57228e-009 to 1.57229e-009
Heightened Def Con from 1.5723e-009 to 1.5723e-009
Heightened Def Con from 1.5723e-009 to 1.57231e-009
Heightened Def Con from 1.57244e-009 to 1.57247e-009
Heightened Def Con from 1.57247e-009 +to 1.5725e-009
Heightened Def Con from 1.57282e-009 to 1.57283e-009
Heightened Def Con from 1.5731e-009 to 1.57311e-009
Heightened Def Con from 1.57316e-009 to 1.5732e-009
Heightened Def Con from 1.57323e-009 to 1.57323e-009
Heightened Def Con from 1.57346e-009 to 1.5737e-009
Heightened Def Con from 1.57381e-009 to 1.57385e-009
Heightened Def Con from 1.57385e-009 to 1.57385e-009
Heightened Def Con from 1.57385e-009 to 1.57385e-009
Heightened Def Con from 1.57391e-009 to 1.57391e-009
Heightened Def Con from 1.57392e-009 to 1.57392e-009
Heightened Def Con from 1.57392e-009 to 1.57392e-009
Heightened Def Con from 1.57399e-009 to 1.57399e-009
Heightened Def Con from 1.57399e-009 to 1.57399e-009
Heightened Def Con from 1.57399e-009 to 1.57399e-009
Heightened Def Con from 1.57399e-009 to 1.57399e-009
Heightened Def Con from 1.57399e-009 +to 1.57399e-009
Heightened Def Con from 1.57402e-009 +to 1.57408e-009
Heightened Def Con from 1.57418e-009 to 1.57418e-009
Heightened Def Con from 1.57419e-009 to 1.57422e-009
Heightened Def Con from 1.57425e-009 to 1.57426e-009
Heightened Def Con from 1.57426e-009 to 1.57453e-009
Heightened Def Con from 1.57465e-009 to 1.57465e-009
Heightened Def Con from 1.57466e-009 to 1.57466e-009
Heightened Def Con from 1.57469e-009 +to 1.57472e-009
Heightened Def Con from 1.57476e-009 +to 1.57476e-009
Heightened Def Con from 1.57498e-009 to 1.57501e-009
Heightened Def Con from 1.57501e-009 to 1.57501e-009
Heightened Def Con from 1.57517e-009 to 1.57517e-009
Heightened Def Con from 1.57517e-009 to 1.57517e-009
Heightened Def Con from 1.57542e-009 to 1.57542e-009
Heightened Def Con from 1.57542e-009 to 1.57542e-009
Heightened Def Con from 1.57542e-009 to 1.57542e-009
Heightened Def Con from 1.57542e-009 to 1.57542e-009
Heightened Def Con from 1.57545e-009 to 1.57545e-009
Heightened Def Con from 1.57545e-009 to 1.57545e-009
Heightened Def Con from 1.57545e-009 to 1.57545e-009
Heightened Def Con from 1.57545e-009 to 1.57546e-009
Heightened Def Con from 1.57547e-009 to 1.57547e-009
Heightened Def Con from 1.57547e-009 to 1.57548e-009
Heightened Def Con from 1.57563e-009 to 1.57563e-009
Heightened Def Con from 1.57564e-009 to 1.57564e-009
Heightened Def Con from 1.57583e-009 to 1.57586e-009
Heightened Def Con from 1.57618e-009 to 1.57618e-009
Heightened Def Con from 1.57621e-009 to 1.57621e-009
Heightened Def Con from 1.57634e-009 to 1.57634e-009
Heightened Def Con from 1.57642e-009 to 1.57642e-009
Heightened Def Con from 1.57642e-009 to 1.57645e-009
Heightened Def Con from 1.57656e-009 to 1.57659e-009
Heightened Def Con from 1.57659e-009 to 1.57659e-009
Heightened Def Con from 1.57694e-009 to 1.57694e-009
Heightened Def Con from 1.57694e-009 to 1.57698e-009
Heightened Def Con from 1.57708e-009 +to 1.57709e-009
Heightened Def Con from 1.57711e-009 to 1.57711e-009
Heightened Def Con from 1.57711e-009 to 1.57711e-009
Heightened Def Con from 1.57752e-009 to 1.57752e-009
Heightened Def Con from 1.57752e-009 to 1.57753e-009
Heightened Def Con from 1.57754e-009 to 1.57754e-009
Heightened Def Con from 1.57762e-009 to 1.57765e-009
Heightened Def Con from 1.57765e-009 to 1.57766e-009
Heightened Def Con from 1.57766e-009 to 1.57766e-009
Heightened Def Con from 1.57766e-009 to 1.57769e-009
Heightened Def Con from 1.57769e-009 to 1.57769e-009
Heightened Def Con from 1.57769e-009 to 1.5777e-009
Heightened Def Con from 1.5777e-009 to 1.57773e-009
Heightened Def Con from 1.57773e-009 to 1.57776e-009
Heightened Def Con from 1.57776e-009 to 1.57779e-009
Heightened Def Con from 1.57781e-009 to 1.57782e-009
Heightened Def Con from 1.57786e-009 to 1.57786e-009
Heightened Def Con from 1.57794e-009 to 1.57794e-009
Heightened Def Con from 1.57794e-009 to 1.57795e-009
Heightened Def Con from 1.57795e-009 to 1.57796e-009
Heightened Def Con from 1.57796e-009 to 1.57799e-009
Heightened Def Con from 1.57799e-009 to 1.57799e-009
Heightened Def Con from 1.57799e-009 to 1.57799e-009
Heightened Def Con from 1.57799e-009 to 1.57799e-009
Heightened Def Con from 1.57799e-009 to 1.57805e-009
Heightened Def Con from 1.57853e-009 to 1.57856e-009
Heightened Def Con from 1.57878e-009 to 1.57878e-009
Heightened Def Con from 1.57879e-009 to 1.57879e-009
Heightened Def Con from 1.57901e-009 to 1.57901e-009
Heightened Def Con from 1.57901e-009 to 1.57905e-009
Heightened Def Con from 1.57905e-009 to 1.57905e-009
Heightened Def Con from 1.57908e-009 to 1.57908e-009
Heightened Def Con from 1.57908e-009 +to 1.58104e-009
Heightened Def Con from 1.58505e-009 to 1.58508e-009
Heightened Def Con from 1.58514e-009 to 1.58515e-009
Heightened Def Con from 1.58515e-009 to 1.58518e-009
Heightened Def Con from 1.58518e-009 to 1.58518e-009
Heightened Def Con from 1.5857e-009 to 1.5857e-009
Heightened Def Con from 1.58579e-009 to 1.58579e-009
Heightened Def Con from 1.58579e-009 to 1.58606e-009
Heightened Def Con from 1.58614e-009 to 1.58614e-009
Heightened Def Con from 1.58628e-009 to 1.58652e-009
Heightened Def Con from 1.58677e-009 to 1.58677e-009
Heightened Def Con from 1.58677e-009 to 1.58681e-009
Heightened Def Con from 1.58703e-009 to 1.58704e-009
Heightened Def Con from 1.5871e-009 to 1.58713e-009
Heightened Def Con from 1.58738e-009 to 1.58738e-009
Heightened Def Con from 1.58739e-009 +to 1.58742e-009
Heightened Def Con from 1.58781e-009 to 1.58782e-009
Heightened Def Con from 1.58782e-009 to 1.58785e-009
Heightened Def Con from 1.58834e-009 to 1.58834e-009
Heightened Def Con from 1.58834e-009 to 1.58837e-009
Heightened Def Con from 1.58874e-009 to 1.58875e-009
Heightened Def Con from 1.5888e-009 to 1.58883e-009
Heightened Def Con from 1.58883e-009 to 1.58886e-009
Heightened Def Con from 1.58916e-009 to 1.58916e-009
Heightened Def Con from 1.5894e-009 to 1.58943e-009
Heightened Def Con from 1.58957e-009 to 1.58957e-009
Heightened Def Con from 1.58958e-009 to 1.58986e-009
Heightened Def Con from 1.58992e-009 to 1.58992e-009
Heightened Def Con from 1.59005e-009 to 1.5903e-009
Heightened Def Con from 1.59083e-009 to 1.59084e-009
Heightened Def Con from 1.59084e-009 to 1.59084e-009
Heightened Def Con from 1.59085e-009 to 1.59088e-009
Heightened Def Con from 1.59093e-009 to 1.59096e-009
Heightened Def Con from 1.591e-009 +to 1.59101e-009
Heightened Def Con from 1.59112e-009 to 1.59113e-009
Heightened Def Con from 1.59119e-009 to 1.59119e-009
Heightened Def Con from 1.59121e-009 to 1.59121e-009
Heightened Def Con from 1.59121e-009 to 1.59122e-009
Heightened Def Con from 1.59122e-009 to 1.59122e-009
Heightened Def Con from 1.5914e-009 to 1.5914e-009
Heightened Def Con from 1.59142e-009 to 1.59143e-009
Heightened Def Con from 1.59151e-009 to 1.59151e-009
Heightened Def Con from 1.59151e-009 to 1.59152e-009
Heightened Def Con from 1.59152e-009 to 1.59155e-009
Heightened Def Con from 1.59155e-009 +to 1.59354e-009
Heightened Def Con from 1.59408e-009 to 1.59408e-009
Heightened Def Con from 1.59408e-009 to 1.59408e-009
Heightened Def Con from 1.59409e-009 to 1.59409e-009
Heightened Def Con from 1.59416e-009 to 1.59416e-009
Heightened Def Con from 1.59416e-009 +to 1.59416e-009
Heightened Def Con from 1.59416e-009 to 1.5942e-009
Heightened Def Con from 1.59465e-009 to 1.59468e-009
Heightened Def Con from 1.59476e-009 to 1.59476e-009
Heightened Def Con from 1.59476e-009 to 1.59479e-009
Heightened Def Con from 1.5949e-009 to 1.59491e-009
Heightened Def Con from 1.59491e-009 to 1.59491e-009
Heightened Def Con from 1.59492e-009 to 1.59492e-009
Heightened Def Con from 1.59492e-009 to 1.59492e-009
Heightened Def Con from 1.59492e-009 to 1.59492e-009
Heightened Def Con from 1.59505e-009 to 1.59506e-009
Heightened Def Con from 1.59506e-009 to 1.59506e-009
Heightened Def Con from 1.59506e-009 to 1.59507e-009
Heightened Def Con from 1.59523e-009 to 1.59526e-009
Heightened Def Con from 1.59527e-009 to 1.59527e-009
Heightened Def Con from 1.59527e-009 to 1.59528e-009
Heightened Def Con from 1.59542e-009 to 1.59542e-009
Heightened Def Con from 1.59542e-009 to 1.59542e-009
Heightened Def Con from 1.59542e-009 to 1.59543e-009
Heightened Def Con from 1.59543e-009 to 1.59543e-009
Heightened Def Con from 1.59551e-009 +to 1.59551e-009
Heightened Def Con from 1.59568e-009 to 1.59568e-009
Heightened Def Con from 1.5957e-009 to 1.5957e-009
Heightened Def Con from 1.5957e-009 to 1.59573e-009
Heightened Def Con from 1.59573e-009 to 1.59573e-009
Heightened Def Con from 1.59573e-009 to 1.59573e-009
Heightened Def Con from 1.59573e-009 to 1.59573e-009
Heightened Def Con from 1.59573e-009 to 1.59573e-009
Heightened Def Con from 1.59573e-009 to 1.59574e-009
Heightened Def Con from 1.59596e-009 to 1.59596e-009
Heightened Def Con from 1.59611e-009 to 1.59611e-009
Heightened Def Con from 1.59611e-009 to 1.59611e-009
Heightened Def Con from 1.59611e-009 to 1.59611e-009
Heightened Def Con from 1.59614e-009 to 1.59617e-009
Heightened Def Con from 1.59643e-009 to 1.59646e-009
Heightened Def Con from 1.59647e-009 to 1.5965e-009
Heightened Def Con from 1.59674e-009 to 1.59677e-009
Heightened Def Con from 1.59728e-009 to 1.59729e-009
Heightened Def Con from 1.59732e-009 to 1.59732e-009
Heightened Def Con from 1.59733e-009 to 1.59733e-009
Heightened Def Con from 1.59734e-009 to 1.59734e-009
Heightened Def Con from 1.59734e-009 to 1.59734e-009
Heightened Def Con from 1.59734e-009 to 1.59735e-009
Heightened Def Con from 1.59744e-009 to 1.59747e-009
Heightened Def Con from 1.59747e-009 to 1.59747e-009
Heightened Def Con from 1.59747e-009 to 1.59748e-009
Heightened Def Con from 1.59753e-009 +to 1.59753e-009
Heightened Def Con from 1.59753e-009 to 1.61316e-009
Heightened Def Con from 1.61316e-009 to 1.61316e-009
Heightened Def Con from 1.61318e-009 to 1.61318e-009
Heightened Def Con from 1.61318e-009 to 1.61318e-009
Heightened Def Con from 1.61318e-009 to 1.61319e-009
Heightened Def Con from 1.61319e-009 to 1.61319e-009
Heightened Def Con from 1.61324e-009 to 1.61324e-009
Heightened Def Con from 1.61324e-009 to 1.61324e-009
Heightened Def Con from 1.61324e-009 to 1.61325e-009
Heightened Def Con from 1.61328e-009 to 1.61328e-009
Heightened Def Con from 1.61328e-009 to 1.61331e-009
Heightened Def Con from 1.61332e-009 to 1.61332e-009
Heightened Def Con from 1.61333e-009 to 1.61336e-009
Heightened Def Con from 1.6137e-009 to 1.61371e-009
Heightened Def Con from 1.61371e-009 to 1.61371e-009
Heightened Def Con from 1.61371e-009 to 1.61374e-009
Heightened Def Con from 1.61389e-009 to 1.61392e-009
Heightened Def Con from 1.61425e-009 to 1.61425e-009
Heightened Def Con from 1.61425e-009 to 1.61428e-009
Heightened Def Con from 1.6146e-009 to 1.61464e-009
Heightened Def Con from 1.61471e-009 to 1.61474e-009
Heightened Def Con from 1.61478e-009 to 1.61478e-009
Heightened Def Con from 1.61517e-009 to 1.6152e-009
Heightened Def Con from 1.61551e-009 to 1.61551e-009
Heightened Def Con from 1.61551e-009 to 1.61551e-009
Heightened Def Con from 1.61551e-009 to 1.61555e-009
Heightened Def Con from 1.61565e-009 to 1.61566e-009
Heightened Def Con from 1.61578e-009 to 1.61579e-009
Heightened Def Con from 1.61579e-009 to 1.61582e-009
Heightened Def Con from 1.61582e-009 to 1.61583e-009
Heightened Def Con from 1.61585e-009 to 1.61585e-009
Heightened Def Con from 1.61585e-009 to 1.61585e-009
Heightened Def Con from 1.61585e-009 to 1.61585e-009
Heightened Def Con from 1.61596e-009 to 1.61596e-009
Heightened Def Con from 1.61597e-009 to 1.61598e-009
Heightened Def Con from 1.61611e-009 to 1.61611e-009
Heightened Def Con from 1.61638e-009 to 1.61639e-009
Heightened Def Con from 1.61645e-009 to 1.61645e-009
Heightened Def Con from 1.61658e-009 to 1.61661e-009
Heightened Def Con from 1.61661e-009 to 1.61661e-009
Heightened Def Con from 1.61662e-009 to 1.61665e-009
Heightened Def Con from 1.61665e-009 to 1.61665e-009
Heightened Def Con from 1.61665e-009 to 1.61665e-009
Heightened Def Con from 1.61665e-009 to 1.61669e-009
Heightened Def Con from 1.61671e-009 +to 1.61674e-009
Heightened Def Con from 1.61682e-009 to 1.61706e-009
Heightened Def Con from 1.61706e-009 to 1.61706e-009
Heightened Def Con from 1.61707e-009 to 1.61707e-009
Heightened Def Con from 1.61707e-009 to 1.61707e-009
Heightened Def Con from 1.61707e-009 to 1.6171e-009
Heightened Def Con from 1.61719e-009 +to 1.6172e-009
Heightened Def Con from 1.61722e-009 to 1.61722e-009
Heightened Def Con from 1.61723e-009 to 1.61723e-009
Heightened Def Con from 1.61725e-009 to 1.61725e-009
Heightened Def Con from 1.61725e-009 to 1.61725e-009
Heightened Def Con from 1.61725e-009 to 1.61725e-009
Heightened Def Con from 1.61725e-009 to 1.61725e-009
Heightened Def Con from 1.61725e-009 to 1.61753e-009
Heightened Def Con from 1.61766e-009 to 1.61766e-009
Heightened Def Con from 1.61766e-009 to 1.61767e-009
Heightened Def Con from 1.61768e-009 +to 1.61768e-009
Heightened Def Con from 1.61768e-009 to 1.61768e-009
Heightened Def Con from 1.61776e-009 to 1.61776e-009
Heightened Def Con from 1.61776e-009 to 1.6178e-009
Heightened Def Con from 1.61785e-009 to 1.61785e-009
Heightened Def Con from 1.61785e-009 to 1.61785e-009
Heightened Def Con from 1.61785e-009 to 1.61786e-009
Heightened Def Con from 1.61786e-009 to 1.61786e-009
Heightened Def Con from 1.61786e-009 to 1.61787e-009
Heightened Def Con from 1.61844e-009 to 1.61844e-009
Heightened Def Con from 1.61847e-009 to 1.61847e-009
Heightened Def Con from 1.61849e-009 to 1.61852e-009
Heightened Def Con from 1.61853e-009 to 1.61853e-009
Heightened Def Con from 1.61853e-009 to 1.61856e-009
Heightened Def Con from 1.61858e-009 to 1.61858e-009
Heightened Def Con from 1.61859e-009 to 1.61859e-009
Heightened Def Con from 1.61859e-009 to 1.61859e-009
Heightened Def Con from 1.6189e-009 to 1.61891e-009
Heightened Def Con from 1.61892e-009 to 1.61892e-009
Heightened Def Con from 1.61892e-009 to 1.61895e-009
Heightened Def Con from 1.61895e-009 to 1.61895e-009
Heightened Def Con from 1.61895e-009 to 1.61896e-009
Heightened Def Con from 1.61897e-009 to 1.619e-009
Heightened Def Con from 1.61906e-009 to 1.61906e-009
Heightened Def Con from 1.61906e-009 to 1.61907e-009
Heightened Def Con from 1.61907e-009 to 1.61907e-009
Heightened Def Con from 1.61907e-009 +to 1.61907e-009
Heightened Def Con from 1.61919e-009 to 1.61919e-009
Heightened Def Con from 1.61919e-009 to 1.61919e-009
Heightened Def Con from 1.6192e-009 to 1.6192e-009
Heightened Def Con from 1.61922e-009 to 1.61923e-009
Heightened Def Con from 1.61923e-009 +to 1.61971e-009
Heightened Def Con from 1.62026e-009 to 1.62032e-009
Heightened Def Con from 1.62043e-009 to 1.62049e-009
Heightened Def Con from 1.62055e-009 to 1.62055e-009
Heightened Def Con from 1.62055e-009 to 1.62055e-009
Heightened Def Con from 1.62055e-009 to 1.62055e-009
Heightened Def Con from 1.62055e-009 to 1.62055e-009
Heightened Def Con from 1.62055e-009 to 1.74556e-009
Heightened Def Con from 1.74558e-009 +to 1.74558e-009
Heightened Def Con from 1.74558e-009 to 1.74583e-009
Heightened Def Con from 1.74668e-009 to 1.74672e-009
Heightened Def Con from 1.74672e-009 to 1.74696e-009
Heightened Def Con from 1.74717e-009 to 1.7472e-009
Heightened Def Con from 1.74735e-009 to 1.74738e-009
Heightened Def Con from 1.74739e-009 to 1.74739e-009
Heightened Def Con from 1.74739e-009 to 1.74745e-009
Heightened Def Con from 1.74746e-009 to 1.74746e-009
Heightened Def Con from 1.74746e-009 to 1.74749e-009
Heightened Def Con from 1.74778e-009 to 1.74803e-009
Heightened Def Con from 1.74804e-009 to 1.74804e-009
Heightened Def Con from 1.74816e-009 to 1.74816e-009
Heightened Def Con from 1.74816e-009 to 1.74817e-009
Heightened Def Con from 1.74852e-009 to 1.74852e-009
Heightened Def Con from 1.74867e-009 to 1.74871e-009
Heightened Def Con from 1.74886e-009 to 1.74889e-009
Heightened Def Con from 1.74915e-009 to 1.74916e-009
Heightened Def Con from 1.74924e-009 to 1.74928e-009
Heightened Def Con from 1.74947e-009 to 1.7495e-009
Heightened Def Con from 1.74951e-009 to 1.74954e-009
Heightened Def Con from 1.74958e-009 to 1.74958e-009
Heightened Def Con from 1.74958e-009 to 1.74958e-009
Heightened Def Con from 1.74958e-009 to 1.74959e-009
Heightened Def Con from 1.74959e-009 to 1.74962e-009
Heightened Def Con from 1.75012e-009 to 1.75015e-009
Heightened Def Con from 1.75016e-009 to 1.75016e-009
Heightened Def Con from 1.75016e-009 to 1.75016e-009
Heightened Def Con from 1.75016e-009 to 1.75019e-009
Heightened Def Con from 1.7503e-009 +to 1.75036e-009
Heightened Def Con from 1.75076e-009 to 1.75076e-009
Heightened Def Con from 1.75076e-009 to 1.75076e-009
Heightened Def Con from 1.75076e-009 to 1.75082e-009
Heightened Def Con from 1.75146e-009 to 1.7515e-009
Heightened Def Con from 1.75159e-009 to 1.75162e-009
Heightened Def Con from 1.75162e-009 to 1.75165e-009
Heightened Def Con from 1.7517e-009 to 1.7517e-009
Heightened Def Con from 1.75204e-009 to 1.75207e-009
Heightened Def Con from 1.75207e-009 to 1.75208e-009
Heightened Def Con from 1.75221e-009 to 1.75222e-009
Heightened Def Con from 1.75227e-009 to 1.75251e-009
Heightened Def Con from 1.75252e-009 to 1.75252e-009
Heightened Def Con from 1.75305e-009 to 1.75308e-009
Heightened Def Con from 1.75344e-009 to 1.75369e-009
Heightened Def Con from 1.75387e-009 to 1.75387e-009
Heightened Def Con from 1.75389e-009 to 1.75389e-009
Heightened Def Con from 1.75389e-009 to 1.75389e-009
Heightened Def Con from 1.75389e-009 to 1.75389e-009
Heightened Def Con from 1.75395e-009 to 1.75395e-009
Heightened Def Con from 1.75395e-009 to 1.75395e-009
Heightened Def Con from 1.75395e-009 to 1.75395e-009
Heightened Def Con from 1.75395e-009 to 1.75395e-009
Heightened Def Con from 1.75422e-009 to 1.75422e-009
Heightened Def Con from 1.75422e-009 to 1.75422e-009
Heightened Def Con from 1.75422e-009 to 1.75425e-009
Heightened Def Con from 1.75425e-009 to 1.75428e-009
Heightened Def Con from 1.75428e-009 to 1.75428e-009
Heightened Def Con from 1.75428e-009 to 1.75429e-009
Heightened Def Con from 1.75444e-009 to 1.75448e-009
Heightened Def Con from 1.75456e-009 to 1.75459e-009
Heightened Def Con from 1.75494e-009 to 1.75494e-009
Heightened Def Con from 1.75494e-009 to 1.75494e-009
Heightened Def Con from 1.75494e-009 to 1.75497e-009
Heightened Def Con from 1.75497e-009 to 1.75498e-009
Heightened Def Con from 1.75511e-009 to 1.75511e-009
Heightened Def Con from 1.75511e-009 to 1.75514e-009
Heightened Def Con from 1.75523e-009 to 1.75523e-009
Heightened Def Con from 1.75523e-009 to 1.75523e-009
Heightened Def Con from 1.75523e-009 to 1.75523e-009
Heightened Def Con from 1.75535e-009 to 1.75538e-009
Heightened Def Con from 1.75538e-009 to 1.75562e-009
Heightened Def Con from 1.75562e-009 to 1.75563e-009
Heightened Def Con from 1.75563e-009 to 1.75563e-009
Heightened Def Con from 1.75594e-009 to 1.75594e-009
Heightened Def Con from 1.75595e-009 to 1.75595e-009
Heightened Def Con from 1.75596e-009 to 1.75596e-009
Heightened Def Con from 1.75596e-009 to 1.75792e-009
Heightened Def Con from 1.75792e-009 to 1.75792e-009
Heightened Def Con from 1.75801e-009 to 1.75801e-009
Heightened Def Con from 1.75801e-009 to 1.75801e-009
Heightened Def Con from 1.75859e-009 to 1.75859e-009
Heightened Def Con from 1.75862e-009 to 1.75863e-009
Heightened Def Con from 1.75866e-009 to 1.75866e-009
Heightened Def Con from 1.75866e-009 to 1.75866e-009
Heightened Def Con from 1.75873e-009 +to 1.75873e-009
Heightened Def Con from 1.75896e-009 +to 1.759e-009
Heightened Def Con from 1.759e-009 +to 1.75901e-009
Heightened Def Con from 1.75918e-009 to 1.75918e-009
Heightened Def Con from 1.75931e-009 +to 1.75931e-009
Heightened Def Con from 1.75948e-009 to 1.75949e-009
Heightened Def Con from 1.75973e-009 to 1.75976e-009
Heightened Def Con from 1.75983e-009 to 1.75983e-009
Heightened Def Con from 1.75983e-009 +to 1.75983e-009
Heightened Def Con from 1.75984e-009 to 1.75984e-009
Heightened Def Con from 1.75984e-009 to 1.75984e-009
Heightened Def Con from 1.75984e-009 +to 1.75987e-009
Heightened Def Con from 1.75996e-009 to 1.75996e-009
Heightened Def Con from 1.75997e-009 to 1.75997e-009
Heightened Def Con from 1.75997e-009 to 1.75997e-009
Heightened Def Con from 1.75997e-009 to 1.75997e-009
Heightened Def Con from 1.75997e-009 to 1.75997e-009
Heightened Def Con from 1.75997e-009 to 1.75997e-009
Heightened Def Con from 1.75997e-009 +to 2.75998e-009
Heightened Def Con from 2.76046e-009 to 2.76047e-009
Heightened Def Con from 2.76047e-009 to 2.76071e-009
Heightened Def Con from 2.76126e-009 to 2.7613e-009
Heightened Def Con from 2.76159e-009 to 2.7616e-009
Heightened Def Con from 2.76184e-009 to 2.7619e-009
Heightened Def Con from 2.76234e-009 to 2.76234e-009
Heightened Def Con from 2.76234e-009 to 2.76234e-009
Heightened Def Con from 2.76242e-009 to 2.76243e-009
Heightened Def Con from 2.76243e-009 to 2.76243e-009
Heightened Def Con from 2.76243e-009 to 2.76246e-009
Heightened Def Con from 2.76256e-009 to 2.76256e-009
Heightened Def Con from 2.76256e-009 to 2.76259e-009
Heightened Def Con from 2.76259e-009 to 2.7626e-009
Heightened Def Con from 2.76266e-009 to 2.76266e-009
Heightened Def Con from 2.76268e-009 to 2.76271e-009
Heightened Def Con from 2.76272e-009 to 2.76276e-009
Heightened Def Con from 2.76278e-009 to 2.76281e-009
Heightened Def Con from 2.76319e-009 +to 2.76322e-009
Heightened Def Con from 2.76343e-009 to 2.76343e-009
Heightened Def Con from 2.76344e-009 to 2.76344e-009
Heightened Def Con from 2.76344e-009 to 2.76347e-009
Heightened Def Con from 2.76379e-009 to 2.76379e-009
Heightened Def Con from 2.76392e-009 to 2.76396e-009
Heightened Def Con from 2.76439e-009 to 2.76442e-009
Heightened Def Con from 2.76456e-009 to 2.76459e-009
Heightened Def Con from 2.7647e-009 to 2.7647e-009
Heightened Def Con from 2.76483e-009 to 2.76483e-009
Heightened Def Con from 2.76504e-009 to 2.76507e-009
Heightened Def Con from 2.76516e-009 to 2.76516e-009
Heightened Def Con from 2.7653e-009 to 2.7653e-009
Heightened Def Con from 2.76532e-009 to 2.76533e-009
Heightened Def Con from 2.76557e-009 to 2.76557e-009
Heightened Def Con from 2.76557e-009 to 2.7656e-009
Heightened Def Con from 2.7656e-009 to 2.76561e-009
Heightened Def Con from 2.76588e-009 to 2.76591e-009
Heightened Def Con from 2.76599e-009 to 2.76599e-009
Heightened Def Con from 2.76599e-009 to 2.76599e-009
Heightened Def Con from 2.76599e-009 to 2.76599e-009
Heightened Def Con from 2.766e-009 to 2.766e-009
Heightened Def Con from 2.76605e-009 to 2.76608e-009
Heightened Def Con from 2.7662e-009 to 2.7662e-009
Heightened Def Con from 2.76626e-009 to 2.76629e-009
Heightened Def Con from 2.76629e-009 to 2.7663e-009
Heightened Def Con from 2.76636e-009 to 2.76636e-009
Heightened Def Con from 2.7666e-009 to 2.7666e-009
Heightened Def Con from 2.7666e-009 to 2.76663e-009
Heightened Def Con from 2.76686e-009 to 2.76686e-009
Heightened Def Con from 2.76686e-009 to 2.76687e-009
Heightened Def Con from 2.76692e-009 to 2.76695e-009
Heightened Def Con from 2.76695e-009 +to 2.76695e-009
Heightened Def Con from 2.76695e-009 to 2.76695e-009
Heightened Def Con from 2.76695e-009 to 2.76695e-009
Heightened Def Con from 2.76695e-009 to 2.76696e-009
Heightened Def Con from 2.76698e-009 to 2.76702e-009
Heightened Def Con from 2.76702e-009 to 2.76702e-009
Heightened Def Con from 2.76702e-009 to 2.76702e-009
Heightened Def Con from 2.76703e-009 +to 2.76706e-009
Heightened Def Con from 2.76713e-009 to 2.76713e-009
Heightened Def Con from 2.76713e-009 to 2.76713e-009
Heightened Def Con from 2.76713e-009 to 2.76713e-009
Heightened Def Con from 2.76713e-009 to 2.76713e-009
Heightened Def Con from 2.76713e-009 to 2.76714e-009
Heightened Def Con from 2.76714e-009 to 2.76714e-009
Heightened Def Con from 2.76714e-009 to 2.76714e-009
Heightened Def Con from 2.76715e-009 to 2.76716e-009
Heightened Def Con from 2.76717e-009 to 2.76717e-009
Heightened Def Con from 2.76722e-009 to 2.76722e-009
Heightened Def Con from 2.76722e-009 to 2.76723e-009
Heightened Def Con from 2.76723e-009 to 2.76723e-009
Heightened Def Con from 2.76723e-009 to 2.76723e-009
Heightened Def Con from 2.76723e-009 to 2.76723e-009
Heightened Def Con from 2.76723e-009 to 2.76723e-009
Heightened Def Con from 2.76723e-009 to 2.76723e-009
Heightened Def Con from 2.76723e-009 to 2.76723e-009
Heightened Def Con from 2.76723e-009 to 2.76724e-009
Heightened Def Con from 2.76724e-009 to 2.76724e-009
Heightened Def Con from 2.76724e-009 to 2.76724e-009
Heightened Def Con from 2.76724e-009 to 2.76724e-009
Heightened Def Con from 2.76724e-009 to 2.76724e-009
Heightened Def Con from 2.76724e-009 to 2.76724e-009
Heightened Def Con from 2.76724e-009 +to 2.76727e-009
Heightened Def Con from 2.76734e-009 to 2.76735e-009
Heightened Def Con from 2.76735e-009 to 2.76738e-009
Heightened Def Con from 2.76746e-009 to 2.76746e-009
Heightened Def Con from 2.76754e-009 to 2.76754e-009
Heightened Def Con from 2.76754e-009 +to 2.76754e-009
Heightened Def Con from 2.76754e-009 to 2.7676e-009
Heightened Def Con from 2.76769e-009 to 2.7677e-009
Heightened Def Con from 2.76771e-009 to 2.76771e-009
Heightened Def Con from 2.76772e-009 to 2.76772e-009
Heightened Def Con from 2.76774e-009 to 2.76774e-009
Heightened Def Con from 2.76774e-009 to 2.76774e-009
Heightened Def Con from 2.76774e-009 to 2.76774e-009
Heightened Def Con from 2.76775e-009 to 2.76775e-009
Heightened Def Con from 2.76775e-009 to 2.76775e-009
Heightened Def Con from 2.76807e-009 to 2.7681e-009
Heightened Def Con from 2.76819e-009 to 2.76819e-009
Heightened Def Con from 2.76852e-009 to 2.76852e-009
Heightened Def Con from 2.76852e-009 to 2.76852e-009
Heightened Def Con from 2.76852e-009 to 2.76852e-009
Heightened Def Con from 2.76852e-009 to 2.76853e-009
Heightened Def Con from 2.76855e-009 to 2.76855e-009
Heightened Def Con from 2.76856e-009 to 2.76859e-009
Heightened Def Con from 2.76859e-009 to 2.76862e-009
Heightened Def Con from 2.76877e-009 to 2.76877e-009
Heightened Def Con from 2.76877e-009 to 2.7688e-009
Heightened Def Con from 2.76892e-009 to 2.76895e-009
Heightened Def Con from 2.76898e-009 to 2.76898e-009
Heightened Def Con from 2.76898e-009 to 2.76899e-009
Heightened Def Con from 2.76928e-009 to 2.76931e-009
Heightened Def Con from 2.76956e-009 to 2.76956e-009
Heightened Def Con from 2.76965e-009 to 2.76965e-009
Heightened Def Con from 2.76981e-009 to 2.76982e-009
Heightened Def Con from 2.76992e-009 to 2.76993e-009
Heightened Def Con from 2.76996e-009 to 2.76997e-009
Heightened Def Con from 2.76997e-009 to 2.76997e-009
Heightened Def Con from 2.77016e-009 to 2.77016e-009
Heightened Def Con from 2.77016e-009 to 2.77019e-009
Heightened Def Con from 2.77032e-009 to 2.77033e-009
Heightened Def Con from 2.77062e-009 +to 2.77063e-009
Heightened Def Con from 2.77089e-009 +to 2.77092e-009
Heightened Def Con from 2.77111e-009 to 2.7716e-009
Heightened Def Con from 2.77166e-009 to 2.77166e-009
Heightened Def Con from 2.77175e-009 to 2.77175e-009
Heightened Def Con from 2.77179e-009 to 2.77179e-009
Heightened Def Con from 2.77179e-009 to 2.77179e-009
Heightened Def Con from 2.77179e-009 to 2.77179e-009
Heightened Def Con from 2.77179e-009 to 2.7718e-009
Heightened Def Con from 2.7718e-009 to 2.7718e-009
Heightened Def Con from 2.7718e-009 to 2.7718e-009
Heightened Def Con from 2.7718e-009 to 2.7718e-009
Heightened Def Con from 2.7718e-009 to 2.7718e-009
Heightened Def Con from 2.7718e-009 to 2.7718e-009
Heightened Def Con from 2.7718e-009 to 2.7718e-009
Heightened Def Con from 2.7718e-009 to 2.7718e-009
Heightened Def Con from 2.7718e-009 to 2.7718e-009
Heightened Def Con from 2.7718e-009 to 2.7718e-009
Heightened Def Con from 2.7718e-009 to 2.77186e-009
Heightened Def Con from 2.77192e-009 to 2.77192e-009
Heightened Def Con from 2.77192e-009 to 2.77192e-009
Heightened Def Con from 2.77192e-009 to 2.77192e-009
Heightened Def Con from 2.77192e-009 to 2.77192e-009
Heightened Def Con from 2.77192e-009 +to 2.77193e-009
Heightened Def Con from 2.77193e-009 to 2.77193e-009
Heightened Def Con from 2.77193e-009 to 2.77193e-009
Heightened Def Con from 2.77193e-009 to 2.77193e-009
Heightened Def Con from 2.77201e-009 to 2.77201e-009
Heightened Def Con from 2.77201e-009 to 2.77204e-009
Heightened Def Con from 2.77204e-009 to 2.7721e-009
Heightened Def Con from 2.77212e-009 to 2.77216e-009
Heightened Def Con from 2.77223e-009 to 2.77224e-009
Heightened Def Con from 2.77237e-009 to 2.77237e-009
Heightened Def Con from 2.77237e-009 to 2.89737e-009
Heightened Def Con from 2.89802e-009 to 2.89805e-009
Heightened Def Con from 2.89857e-009 to 2.89881e-009
Heightened Def Con from 2.89925e-009 to 2.89928e-009
Heightened Def Con from 2.89928e-009 to 2.89931e-009
Heightened Def Con from 2.89969e-009 to 2.89969e-009
Heightened Def Con from 2.89974e-009 to 2.90002e-009
Heightened Def Con from 2.90009e-009 to 2.90009e-009
Heightened Def Con from 2.90009e-009 to 2.90016e-009
Heightened Def Con from 2.90065e-009 to 2.90068e-009
Heightened Def Con from 2.90073e-009 to 2.90073e-009
Heightened Def Con from 2.90073e-009 to 2.90076e-009
Heightened Def Con from 2.90132e-009 to 2.90135e-009
Heightened Def Con from 2.90177e-009 to 2.90177e-009
Heightened Def Con from 2.90193e-009 to 2.90194e-009
Heightened Def Con from 2.90196e-009 to 2.90197e-009
Heightened Def Con from 2.90202e-009 to 2.90205e-009
Heightened Def Con from 2.90216e-009 to 2.90216e-009
Heightened Def Con from 2.90241e-009 to 2.90241e-009
Heightened Def Con from 2.90241e-009 to 2.90241e-009
Heightened Def Con from 2.90241e-009 to 2.90242e-009
Heightened Def Con from 2.90242e-009 to 2.90245e-009
Heightened Def Con from 2.90251e-009 to 2.90252e-009
Heightened Def Con from 2.90268e-009 to 2.90292e-009
Heightened Def Con from 2.90332e-009 to 2.90333e-009
Heightened Def Con from 2.90359e-009 to 2.90362e-009
Heightened Def Con from 2.90362e-009 to 2.90362e-009
Heightened Def Con from 2.90362e-009 to 2.90366e-009
Heightened Def Con from 2.90369e-009 to 2.9037e-009
Heightened Def Con from 2.90384e-009 to 2.90384e-009
Heightened Def Con from 2.90404e-009 to 2.90404e-009
Heightened Def Con from 2.90404e-009 to 2.90404e-009
Heightened Def Con from 2.90415e-009 to 2.90416e-009
Heightened Def Con from 2.90417e-009 to 2.90417e-009
Heightened Def Con from 2.90428e-009 to 2.90429e-009
Heightened Def Con from 2.90445e-009 to 2.90445e-009
Heightened Def Con from 2.90445e-009 to 2.90448e-009
Heightened Def Con from 2.90448e-009 to 2.90451e-009
Heightened Def Con from 2.90458e-009 to 2.90459e-009
Heightened Def Con from 2.90459e-009 to 2.9046e-009
Heightened Def Con from 2.90471e-009 to 2.90472e-009
Heightened Def Con from 2.90472e-009 to 2.90473e-009
Heightened Def Con from 2.90476e-009 to 2.90477e-009
Heightened Def Con from 2.90477e-009 to 2.90477e-009
Heightened Def Con from 2.90477e-009 to 2.90478e-009
Heightened Def Con from 2.90488e-009 to 2.90488e-009
Heightened Def Con from 2.90512e-009 to 2.90512e-009
Heightened Def Con from 2.90521e-009 to 2.90522e-009
Heightened Def Con from 2.90523e-009 to 2.90526e-009
Heightened Def Con from 2.90532e-009 to 2.90536e-009
Heightened Def Con from 2.90536e-009 to 2.90539e-009
Heightened Def Con from 2.90566e-009 to 2.90566e-009
Heightened Def Con from 2.906e-009 to 2.90603e-009
Heightened Def Con from 2.90613e-009 to 2.90616e-009
Heightened Def Con from 2.90624e-009 to 2.90624e-009
Heightened Def Con from 2.90642e-009 to 2.90643e-009
Heightened Def Con from 2.90644e-009 to 2.90647e-009
Heightened Def Con from 2.90671e-009 to 2.90671e-009
Heightened Def Con from 2.90691e-009 to 2.90692e-009
Heightened Def Con from 2.90697e-009 to 2.907e-009
Heightened Def Con from 2.90711e-009 to 2.90711e-009
Heightened Def Con from 2.90726e-009 to 2.90726e-009
Heightened Def Con from 2.90726e-009 to 2.90726e-009
Heightened Def Con from 2.90727e-009 to 2.90727e-009
Heightened Def Con from 2.90731e-009 to 2.90731e-009
Heightened Def Con from 2.90755e-009 to 2.90756e-009
Heightened Def Con from 2.90757e-009 to 2.90757e-009
Heightened Def Con from 2.90758e-009 to 2.90761e-009
Heightened Def Con from 2.9079e-009 to 2.9079e-009
Heightened Def Con from 2.9079e-009 to 3.03293e-009
Heightened Def Con from 3.03297e-009 to 3.03322e-009
Heightened Def Con from 3.03344e-009 to 3.03344e-009
Heightened Def Con from 3.03344e-009 to 3.03345e-009
Heightened Def Con from 3.03393e-009 to 3.03393e-009
Heightened Def Con from 3.03393e-009 to 3.03393e-009
Heightened Def Con from 3.03393e-009 to 3.03396e-009
Heightened Def Con from 3.03409e-009 to 3.03409e-009
Heightened Def Con from 3.03419e-009 to 3.03419e-009
Heightened Def Con from 3.0342e-009 to 3.0342e-009
Heightened Def Con from 3.0342e-009 to 3.03421e-009
Heightened Def Con from 3.03428e-009 to 3.03428e-009
Heightened Def Con from 3.03429e-009 to 3.03429e-009
Heightened Def Con from 3.0344e-009 to 3.0344e-009
Heightened Def Con from 3.03446e-009 to 3.03446e-009
Heightened Def Con from 3.03446e-009 to 3.03449e-009
Heightened Def Con from 3.03477e-009 to 3.03481e-009
Heightened Def Con from 3.03491e-009 to 3.03491e-009
Heightened Def Con from 3.03492e-009 to 3.03495e-009
Heightened Def Con from 3.03501e-009 to 3.03501e-009
Heightened Def Con from 3.03501e-009 to 3.03501e-009
Heightened Def Con from 3.03501e-009 to 3.03526e-009
Heightened Def Con from 3.03542e-009 +to 3.03545e-009
Heightened Def Con from 3.03552e-009 to 3.03576e-009
Heightened Def Con from 3.03582e-009 to 3.03582e-009
Heightened Def Con from 3.03638e-009 to 3.03663e-009
Heightened Def Con from 3.03665e-009 to 3.03665e-009
Heightened Def Con from 3.03666e-009 to 3.03666e-009
Heightened Def Con from 3.03666e-009 to 3.03666e-009
Heightened Def Con from 3.03666e-009 to 3.03667e-009
Heightened Def Con from 3.03667e-009 to 3.03667e-009
Heightened Def Con from 3.03667e-009 to 3.03667e-009
Heightened Def Con from 3.03667e-009 to 3.0367e-009
Heightened Def Con from 3.03684e-009 to 3.03684e-009
Heightened Def Con from 3.03684e-009 to 3.03709e-009
Heightened Def Con from 3.0371e-009 to 3.0371e-009
Heightened Def Con from 3.03717e-009 +to 3.03717e-009
Heightened Def Con from 3.0373e-009 to 3.03731e-009
Heightened Def Con from 3.03736e-009 to 3.03736e-009
Heightened Def Con from 3.03738e-009 to 3.03739e-009
Heightened Def Con from 3.03739e-009 +to 3.03766e-009
Heightened Def Con from 3.03785e-009 to 3.03788e-009
Heightened Def Con from 3.03788e-009 to 3.03794e-009
Heightened Def Con from 3.03812e-009 to 3.03813e-009
Heightened Def Con from 3.03814e-009 to 3.03814e-009
Heightened Def Con from 3.0384e-009 to 3.0384e-009
Heightened Def Con from 3.03844e-009 to 3.03844e-009
Heightened Def Con from 3.03851e-009 to 3.03854e-009
Heightened Def Con from 3.03872e-009 to 3.03875e-009
Heightened Def Con from 3.03887e-009 to 3.03887e-009
Heightened Def Con from 3.0389e-009 to 3.03893e-009
Heightened Def Con from 3.03923e-009 to 3.03923e-009
Heightened Def Con from 3.03924e-009 to 3.03948e-009
Heightened Def Con from 3.0396e-009 to 3.0396e-009
Heightened Def Con from 3.0396e-009 to 3.0396e-009
Heightened Def Con from 3.03961e-009 to 3.03961e-009
Heightened Def Con from 3.03961e-009 to 3.03961e-009
Heightened Def Con from 3.03962e-009 to 3.03962e-009
Heightened Def Con from 3.03964e-009 +to 3.03964e-009
Heightened Def Con from 3.03964e-009 to 3.03964e-009
Heightened Def Con from 3.03965e-009 to 3.03971e-009
Heightened Def Con from 3.03985e-009 +to 3.03985e-009
Heightened Def Con from 3.04005e-009 to 3.04005e-009
Heightened Def Con from 3.04009e-009 to 3.04009e-009
Heightened Def Con from 3.04009e-009 to 3.04009e-009
Heightened Def Con from 3.04026e-009 to 3.04026e-009
Heightened Def Con from 3.04026e-009 to 3.04026e-009
Heightened Def Con from 3.04026e-009 to 3.04027e-009
Heightened Def Con from 3.04027e-009 to 3.04027e-009
Heightened Def Con from 3.04043e-009 to 3.04043e-009
Heightened Def Con from 3.04062e-009 +to 3.04063e-009
Heightened Def Con from 3.04063e-009 +to 3.04088e-009
Heightened Def Con from 3.04089e-009 to 3.04089e-009
Heightened Def Con from 3.04099e-009 to 3.04099e-009
Heightened Def Con from 3.04099e-009 to 3.04099e-009
Heightened Def Con from 3.04099e-009 to 3.04099e-009
Heightened Def Con from 3.04099e-009 to 3.04099e-009
Heightened Def Con from 3.04099e-009 +to 3.04099e-009
Heightened Def Con from 3.04105e-009 to 3.04105e-009
Heightened Def Con from 3.04108e-009 +to 3.04108e-009
Heightened Def Con from 3.04117e-009 +to 3.0412e-009
Heightened Def Con from 3.04126e-009 to 3.04129e-009
Heightened Def Con from 3.04145e-009 to 3.04146e-009
Heightened Def Con from 3.04147e-009 to 3.04153e-009
Heightened Def Con from 3.04179e-009 +to 3.04179e-009
Heightened Def Con from 3.04204e-009 to 3.04205e-009
Heightened Def Con from 3.04208e-009 to 3.04211e-009
Heightened Def Con from 3.04255e-009 to 3.04255e-009
Heightened Def Con from 3.04255e-009 to 3.04259e-009
Heightened Def Con from 3.04261e-009 to 3.04261e-009
Heightened Def Con from 3.04286e-009 to 3.04289e-009
Heightened Def Con from 3.04299e-009 to 3.04299e-009
Heightened Def Con from 3.04305e-009 to 3.04308e-009
Heightened Def Con from 3.04311e-009 to 3.04312e-009
Heightened Def Con from 3.04312e-009 to 3.04315e-009
Heightened Def Con from 3.04315e-009 to 3.04315e-009
Heightened Def Con from 3.04315e-009 to 3.04315e-009
Heightened Def Con from 3.04315e-009 to 3.04316e-009
Heightened Def Con from 3.0432e-009 +to 3.0432e-009
Heightened Def Con from 3.04326e-009 to 3.04329e-009
Heightened Def Con from 3.04335e-009 to 3.04335e-009
Heightened Def Con from 3.0435e-009 to 3.0435e-009
Heightened Def Con from 3.0435e-009 to 3.0435e-009
Heightened Def Con from 3.0435e-009 to 3.0435e-009
Heightened Def Con from 3.04356e-009 to 3.04356e-009
Heightened Def Con from 3.04356e-009 to 3.04356e-009
Heightened Def Con from 3.04357e-009 to 3.04357e-009
Heightened Def Con from 3.0436e-009 to 3.0436e-009
Heightened Def Con from 3.0436e-009 to 3.0436e-009
Heightened Def Con from 3.0436e-009 to 3.0436e-009
Heightened Def Con from 3.04371e-009 to 3.04371e-009
Heightened Def Con from 3.0438e-009 to 3.0438e-009
Heightened Def Con from 3.04382e-009 to 3.04386e-009
Heightened Def Con from 3.04388e-009 to 3.04391e-009
Heightened Def Con from 3.04398e-009 to 3.04401e-009
Heightened Def Con from 3.04401e-009 to 3.04401e-009
Heightened Def Con from 3.04402e-009 to 3.04405e-009
Heightened Def Con from 3.04428e-009 +to 3.04428e-009
Heightened Def Con from 3.04433e-009 to 3.04433e-009
Heightened Def Con from 3.04433e-009 +to 3.04433e-009
Heightened Def Con from 3.04433e-009 to 3.04433e-009
Heightened Def Con from 3.04433e-009 to 3.04433e-009
Heightened Def Con from 3.04433e-009 to 3.04434e-009
Heightened Def Con from 3.04435e-009 to 3.04438e-009
Heightened Def Con from 3.04448e-009 to 3.04448e-009
Heightened Def Con from 3.04448e-009 to 3.04449e-009
Heightened Def Con from 3.04497e-009 to 3.04497e-009
Heightened Def Con from 3.04503e-009 to 3.04506e-009
Heightened Def Con from 3.04519e-009 to 3.0452e-009
Heightened Def Con from 3.04525e-009 to 3.04526e-009
Heightened Def Con from 3.04526e-009 to 3.04527e-009
Heightened Def Con from 3.04528e-009 to 3.04531e-009
Heightened Def Con from 3.04541e-009 +to 3.04541e-009
Heightened Def Con from 3.04541e-009 to 3.04541e-009
Heightened Def Con from 3.04541e-009 +to 3.04541e-009
Heightened Def Con from 3.04542e-009 to 3.04545e-009
Heightened Def Con from 3.04546e-009 to 3.04546e-009
Heightened Def Con from 3.04546e-009 to 3.04546e-009
Heightened Def Con from 3.04546e-009 +to 3.0455e-009
Heightened Def Con from 3.04563e-009 to 3.04563e-009
Heightened Def Con from 3.04563e-009 to 3.04563e-009
Heightened Def Con from 3.04563e-009 +to 3.04564e-009
Heightened Def Con from 3.04566e-009 to 3.04566e-009
Heightened Def Con from 3.04603e-009 +to 3.04603e-009
Heightened Def Con from 3.04622e-009 to 3.04622e-009
Heightened Def Con from 3.04622e-009 +to 3.04622e-009
Heightened Def Con from 3.04623e-009 to 3.04626e-009
Heightened Def Con from 3.04634e-009 to 3.04634e-009
Heightened Def Con from 3.04634e-009 to 3.04635e-009
Heightened Def Con from 3.04635e-009 to 3.04635e-009
Heightened Def Con from 3.04638e-009 to 3.17138e-009
Heightened Def Con from 3.17144e-009 to 3.17193e-009
Heightened Def Con from 3.17195e-009 to 3.17199e-009
Heightened Def Con from 3.17204e-009 to 3.17204e-009
Heightened Def Con from 3.17204e-009 to 3.17229e-009
Heightened Def Con from 3.17316e-009 +to 3.17322e-009
Heightened Def Con from 3.17379e-009 to 3.17382e-009
Heightened Def Con from 3.17461e-009 to 3.17467e-009
Heightened Def Con from 3.17534e-009 to 3.17537e-009
Heightened Def Con from 3.17547e-009 to 3.1755e-009
Heightened Def Con from 3.17564e-009 to 3.17564e-009
Heightened Def Con from 3.17564e-009 to 3.17567e-009
Heightened Def Con from 3.17567e-009 to 3.17567e-009
Heightened Def Con from 3.17568e-009 to 3.17617e-009
Heightened Def Con from 3.17715e-009 to 3.17716e-009
Heightened Def Con from 3.17716e-009 to 3.17716e-009
Heightened Def Con from 3.17741e-009 to 3.17741e-009
Heightened Def Con from 3.17741e-009 to 3.17741e-009
Heightened Def Con from 3.17741e-009 to 3.17745e-009
Heightened Def Con from 3.17746e-009 to 3.17746e-009
Heightened Def Con from 3.17748e-009 to 3.17748e-009
Heightened Def Con from 3.17749e-009 to 3.17752e-009
Heightened Def Con from 3.17774e-009 to 3.17777e-009
Heightened Def Con from 3.17781e-009 to 3.17781e-009
Heightened Def Con from 3.17781e-009 to 3.17781e-009
Heightened Def Con from 3.17781e-009 +to 3.17781e-009
Heightened Def Con from 3.17788e-009 to 3.17984e-009
Heightened Def Con from 3.17986e-009 to 3.17986e-009
Heightened Def Con from 3.17986e-009 to 3.17987e-009
Heightened Def Con from 3.17989e-009 to 3.17989e-009
Heightened Def Con from 3.17989e-009 to 3.17989e-009
Heightened Def Con from 3.1801e-009 to 3.1801e-009
Heightened Def Con from 3.1801e-009 to 4.1801e-009
Heightened Def Con from 4.1801e-009 to 4.1801e-009
Heightened Def Con from 4.18031e-009 to 4.18055e-009
Heightened Def Con from 4.1807e-009 to 4.18073e-009
Heightened Def Con from 4.18095e-009 to 4.18096e-009
Heightened Def Con from 4.18116e-009 to 4.18119e-009
Heightened Def Con from 4.18125e-009 to 4.18128e-009
Heightened Def Con from 4.18185e-009 to 4.18191e-009
Heightened Def Con from 4.1821e-009 to 4.1821e-009
Heightened Def Con from 4.18212e-009 to 4.18213e-009
Heightened Def Con from 4.18213e-009 to 4.18213e-009
Heightened Def Con from 4.18213e-009 to 4.18214e-009
Heightened Def Con from 4.18214e-009 to 4.18217e-009
Heightened Def Con from 4.18236e-009 to 4.18236e-009
Heightened Def Con from 4.18237e-009 to 4.1824e-009
Heightened Def Con from 4.18246e-009 to 4.18249e-009
Heightened Def Con from 4.18271e-009 to 4.18295e-009
Heightened Def Con from 4.18343e-009 to 4.18346e-009
Heightened Def Con from 4.1839e-009 to 4.18393e-009
Heightened Def Con from 4.18409e-009 to 4.18409e-009
Heightened Def Con from 4.18409e-009 to 4.18409e-009
Heightened Def Con from 4.18409e-009 to 4.1841e-009
Heightened Def Con from 4.1842e-009 to 4.18468e-009
Heightened Def Con from 4.18469e-009 to 4.1847e-009
Heightened Def Con from 4.18475e-009 +to 4.18475e-009
Heightened Def Con from 4.18502e-009 to 4.18502e-009
Heightened Def Con from 4.18524e-009 to 4.18527e-009
Heightened Def Con from 4.18536e-009 to 4.18537e-009
Heightened Def Con from 4.18546e-009 to 4.18546e-009
Heightened Def Con from 4.18557e-009 to 4.18557e-009
Heightened Def Con from 4.18557e-009 to 4.1856e-009
Heightened Def Con from 4.18561e-009 +to 4.18564e-009
Heightened Def Con from 4.1858e-009 to 4.18586e-009
Heightened Def Con from 4.18586e-009 to 4.18586e-009
Heightened Def Con from 4.18589e-009 to 4.1859e-009
Heightened Def Con from 4.1859e-009 to 4.1859e-009
Heightened Def Con from 4.18593e-009 to 4.18618e-009
Heightened Def Con from 4.18618e-009 to 4.18618e-009
Heightened Def Con from 4.18641e-009 to 4.18641e-009
Heightened Def Con from 4.18666e-009 to 4.18666e-009
Heightened Def Con from 4.18669e-009 to 4.18672e-009
Heightened Def Con from 4.18672e-009 to 4.18673e-009
Heightened Def Con from 4.18675e-009 to 4.18676e-009
Heightened Def Con from 4.18677e-009 +to 4.18872e-009
Heightened Def Con from 4.18913e-009 to 4.18913e-009
Heightened Def Con from 4.18958e-009 to 4.18958e-009
Heightened Def Con from 4.18958e-009 to 4.18958e-009
Heightened Def Con from 4.18958e-009 to 4.18959e-009
Heightened Def Con from 4.18966e-009 to 4.1899e-009
Heightened Def Con from 4.1899e-009 to 4.18994e-009
Heightened Def Con from 4.19038e-009 to 4.19063e-009
Heightened Def Con from 4.19067e-009 to 4.19067e-009
Heightened Def Con from 4.19068e-009 to 4.19068e-009
Heightened Def Con from 4.19069e-009 to 4.1907e-009
Heightened Def Con from 4.19093e-009 to 4.19093e-009
Heightened Def Con from 4.19165e-009 to 4.19166e-009
Heightened Def Con from 4.19171e-009 to 4.19171e-009
Heightened Def Con from 4.19173e-009 to 4.19176e-009
Heightened Def Con from 4.19213e-009 to 4.19238e-009
Heightened Def Con from 4.19252e-009 to 4.19253e-009
Heightened Def Con from 4.19269e-009 to 4.19272e-009
Heightened Def Con from 4.19276e-009 to 4.19276e-009
Heightened Def Con from 4.19311e-009 to 4.19312e-009
Heightened Def Con from 4.19312e-009 to 4.19312e-009
Heightened Def Con from 4.19312e-009 to 4.19318e-009
Heightened Def Con from 4.19343e-009 to 4.19344e-009
Heightened Def Con from 4.19344e-009 to 4.19347e-009
Heightened Def Con from 4.19382e-009 to 4.19385e-009
Heightened Def Con from 4.19391e-009 to 4.31891e-009
Heightened Def Con from 4.31891e-009 to 4.31891e-009
Heightened Def Con from 4.3194e-009 to 4.31968e-009
Heightened Def Con from 4.32016e-009 to 4.32016e-009
Heightened Def Con from 4.32016e-009 +to 4.32044e-009
Heightened Def Con from 4.32086e-009 to 4.32135e-009
Heightened Def Con from 4.32206e-009 to 4.32207e-009
Heightened Def Con from 4.32207e-009 +to 4.32208e-009
Heightened Def Con from 4.32208e-009 to 4.32211e-009
Heightened Def Con from 4.32262e-009 +to 4.32268e-009
Heightened Def Con from 4.32291e-009 +to 4.32294e-009
Heightened Def Con from 4.3231e-009 to 4.3231e-009
Heightened Def Con from 4.3231e-009 to 4.3231e-009
Heightened Def Con from 4.32326e-009 to 4.32326e-009
Heightened Def Con from 4.32326e-009 to 4.32332e-009
Heightened Def Con from 4.32364e-009 to 4.32364e-009
Heightened Def Con from 4.32364e-009 to 4.32367e-009
Heightened Def Con from 4.3237e-009 to 4.44873e-009
Heightened Def Con from 4.44929e-009 to 4.44929e-009
Heightened Def Con from 4.44929e-009 to 4.44932e-009
Heightened Def Con from 4.44944e-009 to 4.44944e-009
Heightened Def Con from 4.44945e-009 to 4.44972e-009
Heightened Def Con from 4.45004e-009 to 4.45028e-009
Heightened Def Con from 4.45029e-009 to 4.45029e-009
Heightened Def Con from 4.45032e-009 to 4.45032e-009
Heightened Def Con from 4.45063e-009 to 4.45063e-009
Heightened Def Con from 4.45063e-009 to 4.45063e-009
Heightened Def Con from 4.45074e-009 to 4.45102e-009
Heightened Def Con from 4.4512e-009 to 4.45121e-009
Heightened Def Con from 4.45123e-009 to 4.45151e-009
Heightened Def Con from 4.45168e-009 to 4.45192e-009
Heightened Def Con from 4.45278e-009 to 4.45281e-009
Heightened Def Con from 4.45281e-009 to 4.45281e-009
Heightened Def Con from 4.45281e-009 to 4.45282e-009
Heightened Def Con from 4.45282e-009 to 4.57782e-009
Heightened Def Con from 4.5787e-009 to 4.57895e-009
Heightened Def Con from 4.57902e-009 to 4.57906e-009
Heightened Def Con from 4.5795e-009 to 4.5795e-009
Heightened Def Con from 4.57951e-009 to 4.57954e-009
Heightened Def Con from 4.57984e-009 to 4.58183e-009
Heightened Def Con from 4.58237e-009 to 4.5824e-009
Heightened Def Con from 4.58269e-009 to 4.58275e-009
Heightened Def Con from 4.58292e-009 to 4.58293e-009
Heightened Def Con from 4.58293e-009 to 4.58293e-009
Heightened Def Con from 4.58295e-009 to 4.58296e-009
Heightened Def Con from 4.58325e-009 to 4.58328e-009
Heightened Def Con from 4.58329e-009 to 4.58329e-009
Heightened Def Con from 4.58329e-009 to 4.58333e-009
Heightened Def Con from 4.58361e-009 to 4.58364e-009
Heightened Def Con from 4.58364e-009 to 4.58364e-009
Heightened Def Con from 4.58365e-009 to 4.58371e-009
Heightened Def Con from 4.58389e-009 to 4.58389e-009
Heightened Def Con from 4.5839e-009 to 4.58391e-009
Heightened Def Con from 4.58396e-009 to 4.58396e-009
Heightened Def Con from 4.58412e-009 to 4.58413e-009
Heightened Def Con from 4.58418e-009 to 4.58418e-009
Heightened Def Con from 4.58418e-009 to 4.58419e-009
Heightened Def Con from 4.58431e-009 to 4.58431e-009
Heightened Def Con from 4.58447e-009 to 4.58448e-009
Heightened Def Con from 4.58448e-009 to 4.58448e-009
Heightened Def Con from 4.58454e-009 to 4.58455e-009
Heightened Def Con from 4.58456e-009 to 4.58481e-009
Heightened Def Con from 4.58532e-009 to 4.58535e-009
Heightened Def Con from 4.58541e-009 to 4.58541e-009
Heightened Def Con from 4.58565e-009 to 4.58568e-009
Heightened Def Con from 4.58568e-009 to 4.58568e-009
Heightened Def Con from 4.58568e-009 +to 4.58569e-009
Heightened Def Con from 4.58574e-009 to 4.58574e-009
Heightened Def Con from 4.58574e-009 +to 4.71074e-009
Heightened Def Con from 4.71149e-009 to 4.71177e-009
Heightened Def Con from 4.71264e-009 to 4.71267e-009
Heightened Def Con from 4.71301e-009 to 4.71307e-009
Heightened Def Con from 4.71339e-009 to 4.71343e-009
Heightened Def Con from 4.71346e-009 to 4.71346e-009
Heightened Def Con from 4.71346e-009 to 4.71373e-009
Heightened Def Con from 4.71397e-009 to 4.71422e-009
Heightened Def Con from 4.71489e-009 to 4.71489e-009
Heightened Def Con from 4.71492e-009 to 4.71517e-009
Heightened Def Con from 4.71522e-009 to 4.71522e-009
Heightened Def Con from 4.71522e-009 to 4.71528e-009
Heightened Def Con from 4.71586e-009 to 4.71614e-009
Heightened Def Con from 4.71667e-009 to 4.7167e-009
Heightened Def Con from 4.71675e-009 to 4.71675e-009
Heightened Def Con from 4.71708e-009 to 4.71712e-009
Heightened Def Con from 4.71712e-009 to 4.71715e-009
Heightened Def Con from 4.71729e-009 to 4.71756e-009
Heightened Def Con from 4.71756e-009 to 4.7176e-009
Heightened Def Con from 4.7176e-009 to 4.71785e-009
Heightened Def Con from 4.71845e-009 to 4.71845e-009
Heightened Def Con from 4.71845e-009 to 4.71845e-009
Heightened Def Con from 4.71849e-009 to 4.71852e-009
Heightened Def Con from 4.71862e-009 to 4.71862e-009
Heightened Def Con from 4.71862e-009 +to 4.72057e-009
Heightened Def Con from 4.72149e-009 to 4.72173e-009
Heightened Def Con from 4.72174e-009 to 4.72177e-009
Heightened Def Con from 4.72232e-009 to 4.72233e-009
Heightened Def Con from 4.72233e-009 to 4.72233e-009
Heightened Def Con from 4.72249e-009 to 4.72252e-009
Heightened Def Con from 4.72267e-009 to 4.7227e-009
Heightened Def Con from 4.72276e-009 to 4.72276e-009
Heightened Def Con from 4.72276e-009 to 4.72276e-009
Heightened Def Con from 4.72276e-009 to 4.72276e-009
Heightened Def Con from 4.72277e-009 to 4.72277e-009
Heightened Def Con from 4.72289e-009 +to 4.72292e-009
Heightened Def Con from 4.72359e-009 to 4.72387e-009
Heightened Def Con from 4.72414e-009 to 4.72417e-009
Heightened Def Con from 4.72446e-009 to 4.72446e-009
Heightened Def Con from 4.72446e-009 to 4.72449e-009
Heightened Def Con from 4.72461e-009 to 4.72461e-009
Heightened Def Con from 4.72461e-009 to 4.72461e-009
Heightened Def Con from 4.72461e-009 to 4.72461e-009
Heightened Def Con from 4.72461e-009 to 4.72465e-009
Heightened Def Con from 4.72468e-009 to 4.72469e-009
Heightened Def Con from 4.72531e-009 to 4.72531e-009
Heightened Def Con from 4.72535e-009 to 4.72538e-009
Heightened Def Con from 4.72588e-009 to 4.72591e-009
Heightened Def Con from 4.72601e-009 to 4.72604e-009
Heightened Def Con from 4.72604e-009 to 4.72604e-009
Heightened Def Con from 4.72608e-009 to 4.72609e-009
Heightened Def Con from 4.72614e-009 to 4.72617e-009
Heightened Def Con from 4.72619e-009 +to 4.7262e-009
Heightened Def Con from 4.72622e-009 to 4.72623e-009
Heightened Def Con from 4.72623e-009 to 4.72623e-009
Heightened Def Con from 4.72623e-009 to 4.72626e-009
Heightened Def Con from 4.7263e-009 to 4.7263e-009
Heightened Def Con from 4.72631e-009 to 4.72631e-009
Heightened Def Con from 4.72637e-009 to 4.72637e-009
Heightened Def Con from 4.72653e-009 to 4.85153e-009
Heightened Def Con from 4.85153e-009 to 4.85153e-009
Heightened Def Con from 4.85153e-009 to 4.85153e-009
Heightened Def Con from 4.85168e-009 to 4.85168e-009
Heightened Def Con from 4.85171e-009 to 4.85174e-009
Heightened Def Con from 4.85201e-009 to 4.85201e-009
Heightened Def Con from 4.85204e-009 to 4.85205e-009
Heightened Def Con from 4.85223e-009 to 4.85223e-009
Heightened Def Con from 4.85224e-009 to 4.85227e-009
Heightened Def Con from 4.85227e-009 to 4.85227e-009
Heightened Def Con from 4.85227e-009 +to 4.8523e-009
Heightened Def Con from 4.85295e-009 to 4.85298e-009
Heightened Def Con from 4.85336e-009 to 4.85339e-009
Heightened Def Con from 4.85357e-009 to 4.85358e-009
Heightened Def Con from 4.85372e-009 to 4.85378e-009
Heightened Def Con from 4.85405e-009 to 4.85409e-009
Heightened Def Con from 4.85409e-009 to 4.85409e-009
Heightened Def Con from 4.8541e-009 to 4.8541e-009
Heightened Def Con from 4.85411e-009 to 4.85411e-009
Heightened Def Con from 4.85446e-009 to 4.85446e-009
Heightened Def Con from 4.85449e-009 to 4.85449e-009
Heightened Def Con from 4.85463e-009 to 4.85466e-009
Heightened Def Con from 4.85466e-009 to 4.85469e-009
Heightened Def Con from 4.85486e-009 to 4.85486e-009
Heightened Def Con from 4.85508e-009 to 4.85509e-009
Heightened Def Con from 4.8551e-009 to 4.85513e-009
Heightened Def Con from 4.85514e-009 to 4.8552e-009
Heightened Def Con from 4.85533e-009 to 4.85561e-009
Heightened Def Con from 4.85569e-009 to 4.85569e-009
Heightened Def Con from 4.85569e-009 to 4.85572e-009
Heightened Def Con from 4.85573e-009 to 4.85576e-009
Heightened Def Con from 4.85576e-009 to 4.85582e-009
Heightened Def Con from 4.85586e-009 to 4.85587e-009
Heightened Def Con from 4.85587e-009 to 4.8559e-009
Heightened Def Con from 4.8559e-009 to 4.8559e-009
Heightened Def Con from 4.8559e-009 to 4.85593e-009
Heightened Def Con from 4.85599e-009 to 4.85602e-009
Heightened Def Con from 4.85602e-009 to 4.85608e-009
Heightened Def Con from 4.85641e-009 to 4.85641e-009
Heightened Def Con from 4.8567e-009 to 4.85674e-009
Heightened Def Con from 4.85679e-009 to 4.85679e-009
Heightened Def Con from 4.85679e-009 to 4.8568e-009
Heightened Def Con from 4.8568e-009 to 4.8568e-009
Heightened Def Con from 4.85686e-009 to 4.85686e-009
Heightened Def Con from 4.85687e-009 to 4.85688e-009
Heightened Def Con from 4.85689e-009 to 4.85714e-009
Heightened Def Con from 4.85715e-009 to 4.85718e-009
Heightened Def Con from 4.85758e-009 to 4.85758e-009
Heightened Def Con from 4.85778e-009 to 4.85779e-009
Heightened Def Con from 4.85779e-009 to 4.85785e-009
Heightened Def Con from 4.85812e-009 to 4.85812e-009
Heightened Def Con from 4.85813e-009 to 4.85816e-009
Heightened Def Con from 4.85817e-009 to 4.85817e-009
Heightened Def Con from 4.85836e-009 to 4.85837e-009
Heightened Def Con from 4.85843e-009 to 4.85843e-009
Heightened Def Con from 4.85843e-009 to 4.85843e-009
Heightened Def Con from 4.85843e-009 to 4.85846e-009
Heightened Def Con from 4.85846e-009 to 4.85849e-009
Heightened Def Con from 4.85852e-009 to 4.85852e-009
Heightened Def Con from 4.85865e-009 to 4.85868e-009
Heightened Def Con from 4.85893e-009 to 4.85893e-009
Heightened Def Con from 4.85907e-009 to 4.8591e-009
Heightened Def Con from 4.8591e-009 to 4.85911e-009
Heightened Def Con from 4.85917e-009 to 4.85917e-009
Heightened Def Con from 4.85917e-009 to 4.8592e-009
Heightened Def Con from 4.85922e-009 to 4.85922e-009
Heightened Def Con from 4.85922e-009 +to 4.85925e-009
Heightened Def Con from 4.85948e-009 to 4.85951e-009
Heightened Def Con from 4.85951e-009 to 4.85955e-009
Heightened Def Con from 4.85985e-009 to 4.85985e-009
Heightened Def Con from 4.85991e-009 to 4.85994e-009
Heightened Def Con from 4.85994e-009 to 4.85994e-009
Heightened Def Con from 4.86038e-009 to 4.86038e-009
Heightened Def Con from 4.86038e-009 to 4.86039e-009
Heightened Def Con from 4.86039e-009 to 4.86039e-009
Heightened Def Con from 4.86044e-009 to 4.86045e-009
Heightened Def Con from 4.86045e-009 to 4.86046e-009
Heightened Def Con from 4.86046e-009 to 4.86046e-009
Heightened Def Con from 4.86047e-009 to 4.86048e-009
Heightened Def Con from 4.86048e-009 to 4.86073e-009
Heightened Def Con from 4.86109e-009 to 4.86112e-009
Heightened Def Con from 4.86119e-009 to 4.86119e-009
Heightened Def Con from 4.86119e-009 to 4.86122e-009
Heightened Def Con from 4.86124e-009 to 4.86124e-009
Heightened Def Con from 4.86147e-009 +to 4.86147e-009
Heightened Def Con from 4.86157e-009 to 4.86185e-009
[...]
Heightened Def Con from 2.21618e-008 to 2.21618e-008
Heightened Def Con from 2.21618e-008 to 2.21618e-008
Heightened Def Con from 2.21618e-008 to 2.21618e-008
Heightened Def Con from 2.21619e-008 to 2.21619e-008
Heightened Def Con from 2.21619e-008 to 2.21619e-008
Heightened Def Con from 2.21619e-008 to 2.21619e-008
Heightened Def Con from 2.2162e-008 to 2.21622e-008
Heightened Def Con from 2.21622e-008 to 2.21623e-008
Heightened Def Con from 2.21623e-008 +to 2.21623e-008
Heightened Def Con from 2.21625e-008 to 2.21625e-008
Heightened Def Con from 2.21625e-008 to 2.21625e-008
Heightened Def Con from 2.21626e-008 to 2.21626e-008
Heightened Def Con from 2.21626e-008 to 2.21627e-008
Heightened Def Con from 2.21627e-008 to 2.21627e-008
Heightened Def Con from 2.21627e-008 to 2.21627e-008
Heightened Def Con from 2.21628e-008 to 2.21628e-008
Heightened Def Con from 2.21634e-008 to 2.21635e-008
Heightened Def Con from 2.21635e-008 to 2.21635e-008
Heightened Def Con from 2.21635e-008 to 2.21636e-008
Heightened Def Con from 2.21636e-008 to 2.21636e-008
Heightened Def Con from 2.21636e-008 to 2.21636e-008
Heightened Def Con from 2.21636e-008 to 2.21636e-008
Heightened Def Con from 2.21636e-008 to 2.21636e-008
Heightened Def Con from 2.21636e-008 to 2.21636e-008
Heightened Def Con from 2.21636e-008 to 2.21637e-008
Heightened Def Con from 2.21638e-008 to 2.21638e-008
Heightened Def Con from 2.21638e-008 to 2.21638e-008
Heightened Def Con from 2.21638e-008 to 2.21638e-008
Heightened Def Con from 2.21638e-008 to 2.21638e-008
Heightened Def Con from 2.21638e-008 to 2.21638e-008
Heightened Def Con from 2.21638e-008 to 2.21638e-008
Heightened Def Con from 2.2164e-008 to 2.21641e-008
Heightened Def Con from 2.21641e-008 to 2.21641e-008
Heightened Def Con from 2.21641e-008 to 2.21641e-008
Heightened Def Con from 2.21641e-008 to 2.21641e-008
Heightened Def Con from 2.21641e-008 to 2.21642e-008
Heightened Def Con from 2.21643e-008 to 2.21643e-008
Heightened Def Con from 2.21643e-008 to 2.21643e-008
Heightened Def Con from 2.21643e-008 to 2.21644e-008
Heightened Def Con from 2.21644e-008 to 2.21644e-008
Heightened Def Con from 2.21644e-008 +to 2.21644e-008
Heightened Def Con from 2.21644e-008 to 2.21644e-008
Heightened Def Con from 2.21644e-008 to 2.21644e-008
Heightened Def Con from 2.21644e-008 +to 2.21645e-008
Heightened Def Con from 2.21645e-008 to 2.21645e-008
Heightened Def Con from 2.21648e-008 to 2.21648e-008
Heightened Def Con from 2.21652e-008 to 2.21652e-008
Heightened Def Con from 2.21652e-008 to 2.21652e-008
Heightened Def Con from 2.21652e-008 to 2.21652e-008
Heightened Def Con from 2.21654e-008 to 2.21654e-008
Heightened Def Con from 2.21654e-008 to 2.21654e-008
Heightened Def Con from 2.21654e-008 to 2.21654e-008
Heightened Def Con from 2.21656e-008 to 2.21656e-008
Heightened Def Con from 2.21656e-008 to 2.21656e-008
Heightened Def Con from 2.21656e-008 to 2.21656e-008
Heightened Def Con from 2.21657e-008 to 2.21657e-008
Heightened Def Con from 2.21657e-008 to 2.21658e-008
Heightened Def Con from 2.21658e-008 to 2.21658e-008
Heightened Def Con from 2.21658e-008 to 2.21658e-008
Heightened Def Con from 2.21658e-008 to 2.21658e-008
Heightened Def Con from 2.21659e-008 to 2.21659e-008
Heightened Def Con from 2.2166e-008 to 2.2166e-008
Heightened Def Con from 2.2166e-008 to 2.2166e-008
Heightened Def Con from 2.2166e-008 to 2.2166e-008
Heightened Def Con from 2.2166e-008 to 2.2166e-008
Heightened Def Con from 2.2166e-008 to 2.2166e-008
Heightened Def Con from 2.2166e-008 to 2.2166e-008
Heightened Def Con from 2.2166e-008 to 2.2166e-008
Heightened Def Con from 2.2166e-008 to 2.2166e-008
Heightened Def Con from 2.2166e-008 to 2.2166e-008
Heightened Def Con from 2.2166e-008 to 2.2166e-008
Heightened Def Con from 2.21661e-008 to 2.21661e-008
Heightened Def Con from 2.21663e-008 to 2.21663e-008
Heightened Def Con from 2.21664e-008 +to 2.21665e-008
Heightened Def Con from 2.21665e-008 to 2.21665e-008
Heightened Def Con from 2.21665e-008 to 2.21665e-008
Heightened Def Con from 2.21665e-008 to 2.21665e-008
Heightened Def Con from 2.21666e-008 to 2.21666e-008
Heightened Def Con from 2.21666e-008 +to 2.21666e-008
Heightened Def Con from 2.2167e-008 to 2.2167e-008
Heightened Def Con from 2.2167e-008 to 2.2167e-008
Heightened Def Con from 2.2167e-008 +to 2.2167e-008
Heightened Def Con from 2.21671e-008 to 2.21671e-008
Heightened Def Con from 2.21671e-008 to 2.21671e-008
Heightened Def Con from 2.21671e-008 to 2.21671e-008
Heightened Def Con from 2.21671e-008 to 2.21671e-008
Heightened Def Con from 2.21671e-008 to 2.21671e-008
Heightened Def Con from 2.21671e-008 to 2.21671e-008
Heightened Def Con from 2.21671e-008 to 2.21671e-008
Heightened Def Con from 2.21671e-008 to 2.21671e-008
Heightened Def Con from 2.21671e-008 to 2.21671e-008
Heightened Def Con from 2.21671e-008 +to 2.21672e-008
Heightened Def Con from 2.21674e-008 +to 2.21674e-008
Heightened Def Con from 2.21677e-008 to 2.21677e-008
Heightened Def Con from 2.21677e-008 to 2.21677e-008
Heightened Def Con from 2.21677e-008 to 2.21833e-008
Heightened Def Con from 2.21833e-008 to 2.21833e-008
Heightened Def Con from 2.21834e-008 to 2.21834e-008
Heightened Def Con from 2.21836e-008 to 2.21836e-008
Heightened Def Con from 2.21837e-008 to 2.21837e-008
Heightened Def Con from 2.21837e-008 to 2.21837e-008
Heightened Def Con from 2.21837e-008 to 2.21837e-008
Heightened Def Con from 2.21838e-008 to 2.21838e-008
Heightened Def Con from 2.21838e-008 to 2.21838e-008
Heightened Def Con from 2.21841e-008 to 2.21841e-008
Heightened Def Con from 2.21842e-008 to 2.21842e-008
Heightened Def Con from 2.21843e-008 to 2.21843e-008
Heightened Def Con from 2.21843e-008 to 2.21843e-008
Heightened Def Con from 2.21844e-008 to 2.21844e-008
Heightened Def Con from 2.21844e-008 to 2.21844e-008
Heightened Def Con from 2.21844e-008 to 2.21844e-008
Heightened Def Con from 2.21844e-008 to 2.21844e-008
Heightened Def Con from 2.21844e-008 to 2.21844e-008
Heightened Def Con from 2.21844e-008 +to 2.21845e-008
Heightened Def Con from 2.21847e-008 to 2.21847e-008
Heightened Def Con from 2.21847e-008 to 2.21848e-008
Heightened Def Con from 2.21848e-008 to 2.21848e-008
Heightened Def Con from 2.21848e-008 to 2.21848e-008
Heightened Def Con from 2.21848e-008 +to 2.2185e-008
Heightened Def Con from 2.21853e-008 to 2.21854e-008
Heightened Def Con from 2.21856e-008 to 2.21856e-008
Heightened Def Con from 2.21859e-008 to 2.2186e-008
Heightened Def Con from 2.21864e-008 to 2.21864e-008
Heightened Def Con from 2.21864e-008 +to 2.21865e-008
Heightened Def Con from 2.21865e-008 to 2.21865e-008
Heightened Def Con from 2.21865e-008 to 2.21865e-008
Heightened Def Con from 2.21865e-008 to 2.21865e-008
Heightened Def Con from 2.21865e-008 +to 2.21866e-008
Heightened Def Con from 2.21866e-008 to 2.21866e-008
Heightened Def Con from 2.21866e-008 to 2.21866e-008
Heightened Def Con from 2.21866e-008 to 2.21866e-008
Heightened Def Con from 2.21868e-008 to 2.21868e-008
Heightened Def Con from 2.21868e-008 to 2.21868e-008
Heightened Def Con from 2.21868e-008 to 2.21868e-008
Heightened Def Con from 2.21869e-008 +to 2.21869e-008
Heightened Def Con from 2.21869e-008 +to 2.2187e-008
Heightened Def Con from 2.2187e-008 to 2.2187e-008
Heightened Def Con from 2.21873e-008 to 2.21873e-008
Heightened Def Con from 2.21873e-008 to 2.21873e-008
Heightened Def Con from 2.21874e-008 to 2.21874e-008
Heightened Def Con from 2.21874e-008 to 2.21874e-008
Heightened Def Con from 2.21874e-008 to 2.21874e-008
Heightened Def Con from 2.21874e-008 to 2.21874e-008
Heightened Def Con from 2.21875e-008 to 2.21875e-008
Heightened Def Con from 2.21875e-008 to 2.21875e-008
Heightened Def Con from 2.21875e-008 to 2.21875e-008
Heightened Def Con from 2.21875e-008 to 2.21875e-008
Heightened Def Con from 2.21875e-008 to 2.21875e-008
Heightened Def Con from 2.21877e-008 to 2.21877e-008
Heightened Def Con from 2.21878e-008 to 2.21878e-008
Heightened Def Con from 2.21878e-008 to 2.21878e-008
Heightened Def Con from 2.21878e-008 to 2.21879e-008
Heightened Def Con from 2.21879e-008 to 2.21879e-008
Heightened Def Con from 2.21879e-008 +to 2.21879e-008
Heightened Def Con from 2.21879e-008 to 2.21879e-008
Heightened Def Con from 2.21879e-008 to 2.21879e-008
Heightened Def Con from 2.21879e-008 to 2.21879e-008
Heightened Def Con from 2.21879e-008 to 2.2188e-008
Heightened Def Con from 2.2188e-008 to 2.2188e-008
Heightened Def Con from 2.21883e-008 to 2.21883e-008
Heightened Def Con from 2.21884e-008 to 2.21885e-008
Heightened Def Con from 2.21887e-008 to 2.21887e-008
Heightened Def Con from 2.21887e-008 to 2.21887e-008
Heightened Def Con from 2.21887e-008 +to 2.21888e-008
Heightened Def Con from 2.21888e-008 to 2.21888e-008
Heightened Def Con from 2.21889e-008 to 2.21889e-008
Heightened Def Con from 2.21889e-008 to 2.21889e-008
Heightened Def Con from 2.21889e-008 to 2.21889e-008
Heightened Def Con from 2.21894e-008 to 2.21894e-008
Heightened Def Con from 2.21895e-008 to 2.21895e-008
Heightened Def Con from 2.21895e-008 to 2.21896e-008
Heightened Def Con from 2.21896e-008 to 2.21896e-008
Heightened Def Con from 2.21896e-008 to 2.21896e-008
Heightened Def Con from 2.21896e-008 +to 2.21898e-008
Heightened Def Con from 2.21901e-008 to 2.21902e-008
Heightened Def Con from 2.21902e-008 to 2.21902e-008
Heightened Def Con from 2.21902e-008 to 2.21902e-008
Heightened Def Con from 2.21902e-008 to 2.21902e-008
Heightened Def Con from 2.21903e-008 +to 2.21903e-008
Heightened Def Con from 2.21903e-008 +to 2.21903e-008
Heightened Def Con from 2.21905e-008 to 2.21905e-008
Heightened Def Con from 2.21906e-008 to 2.21906e-008
Heightened Def Con from 2.21911e-008 to 2.21911e-008
Heightened Def Con from 2.21911e-008 to 2.21911e-008
Heightened Def Con from 2.21911e-008 to 2.21911e-008
Heightened Def Con from 2.21911e-008 to 2.21911e-008
Heightened Def Con from 2.21912e-008 to 2.21912e-008
Heightened Def Con from 2.21914e-008 to 2.21914e-008
Heightened Def Con from 2.21914e-008 to 2.21914e-008
Heightened Def Con from 2.21914e-008 to 2.21915e-008
Heightened Def Con from 2.21915e-008 to 2.21935e-008
Heightened Def Con from 2.21936e-008 to 2.21936e-008
Heightened Def Con from 2.21936e-008 to 2.21936e-008
Heightened Def Con from 2.21938e-008 to 2.21938e-008
Heightened Def Con from 2.21943e-008 to 2.21943e-008
Heightened Def Con from 2.21943e-008 to 2.21944e-008
Heightened Def Con from 2.21944e-008 to 2.21944e-008
Heightened Def Con from 2.21944e-008 to 2.21944e-008
Heightened Def Con from 2.21948e-008 to 2.21968e-008
Heightened Def Con from 2.21968e-008 to 2.21968e-008
Heightened Def Con from 2.21968e-008 to 2.21968e-008
Heightened Def Con from 2.21968e-008 to 2.21968e-008
Heightened Def Con from 2.21972e-008 to 2.21972e-008
Heightened Def Con from 2.21972e-008 to 2.21972e-008
Heightened Def Con from 2.21972e-008 to 2.21972e-008
Heightened Def Con from 2.21974e-008 to 2.21974e-008
Heightened Def Con from 2.21974e-008 to 2.21974e-008
Heightened Def Con from 2.21976e-008 to 2.21976e-008
Heightened Def Con from 2.21976e-008 to 2.21977e-008
Heightened Def Con from 2.2198e-008 to 2.2198e-008
Heightened Def Con from 2.21982e-008 to 2.21982e-008
Heightened Def Con from 2.21982e-008 to 2.21982e-008
Heightened Def Con from 2.21982e-008 to 2.21982e-008
Heightened Def Con from 2.21982e-008 to 2.21982e-008
Heightened Def Con from 2.21984e-008 to 2.21984e-008
Heightened Def Con from 2.21984e-008 to 2.21984e-008
Heightened Def Con from 2.21984e-008 to 2.21984e-008
Heightened Def Con from 2.21985e-008 to 2.21985e-008
Heightened Def Con from 2.21987e-008 to 2.21988e-008
Heightened Def Con from 2.21988e-008 to 2.21988e-008
Heightened Def Con from 2.21991e-008 to 2.21991e-008
Heightened Def Con from 2.21991e-008 to 2.21991e-008
Heightened Def Con from 2.21991e-008 to 2.21991e-008
Heightened Def Con from 2.21992e-008 +to 2.21992e-008
Heightened Def Con from 2.21992e-008 to 2.21992e-008
Heightened Def Con from 2.21992e-008 to 2.21992e-008
Heightened Def Con from 2.21992e-008 to 2.21992e-008
Heightened Def Con from 2.21992e-008 +to 2.21992e-008
Heightened Def Con from 2.21994e-008 to 2.21994e-008
Heightened Def Con from 2.21994e-008 to 2.21995e-008
Heightened Def Con from 2.21995e-008 to 2.21995e-008
Heightened Def Con from 2.21995e-008 +++to 2.22014e-008
Heightened Def Con from 2.22032e-008 to 2.22032e-008
Heightened Def Con from 2.22032e-008 to 2.22034e-008
Heightened Def Con from 2.22043e-008 to 2.22044e-008
Heightened Def Con from 2.22044e-008 to 2.22044e-008
Heightened Def Con from 2.22045e-008 to 2.22045e-008
Heightened Def Con from 2.22045e-008 to 2.22045e-008
Heightened Def Con from 2.2205e-008 to 2.2205e-008
Heightened Def Con from 2.2205e-008 to 2.2205e-008
Heightened Def Con from 2.2205e-008 to 2.22053e-008
Heightened Def Con from 2.22053e-008 to 2.22053e-008
Heightened Def Con from 2.22054e-008 to 2.22056e-008
Heightened Def Con from 2.22062e-008 to 2.22063e-008
Heightened Def Con from 2.22067e-008 to 2.22067e-008
Heightened Def Con from 2.22067e-008 to 2.22067e-008
Heightened Def Con from 2.22067e-008 to 2.22067e-008
Heightened Def Con from 2.22071e-008 to 2.22073e-008
Heightened Def Con from 2.22073e-008 +to 2.22073e-008
Heightened Def Con from 2.2208e-008 to 2.2208e-008
Heightened Def Con from 2.2208e-008 to 2.22081e-008
Heightened Def Con from 2.22083e-008 to 2.22083e-008
Heightened Def Con from 2.22083e-008 to 2.22084e-008
Heightened Def Con from 2.22084e-008 to 2.22084e-008
Heightened Def Con from 2.22084e-008 +to 2.22084e-008
Heightened Def Con from 2.22084e-008 to 2.22084e-008
Heightened Def Con from 2.22086e-008 to 2.22086e-008
Heightened Def Con from 2.22086e-008 to 2.22086e-008
Heightened Def Con from 2.22089e-008 to 2.2209e-008
Heightened Def Con from 2.22091e-008 to 2.22092e-008
Heightened Def Con from 2.22092e-008 to 2.22092e-008
Heightened Def Con from 2.22092e-008 to 2.22092e-008
Heightened Def Con from 2.22094e-008 to 2.22094e-008
Heightened Def Con from 2.22094e-008 to 2.22094e-008
Heightened Def Con from 2.22094e-008 to 2.22094e-008
Heightened Def Con from 2.22094e-008 to 2.22097e-008
Heightened Def Con from 2.22098e-008 to 2.22098e-008
Heightened Def Con from 2.22099e-008 to 2.22099e-008
Heightened Def Con from 2.22099e-008 to 2.22099e-008
Heightened Def Con from 2.22101e-008 to 2.22101e-008
Heightened Def Con from 2.22101e-008 to 2.22101e-008
Heightened Def Con from 2.22101e-008 to 2.22101e-008
Heightened Def Con from 2.22101e-008 to 2.22101e-008
Heightened Def Con from 2.22102e-008 +to 2.22102e-008
Heightened Def Con from 2.22102e-008 to 2.22103e-008
Heightened Def Con from 2.22106e-008 to 2.22106e-008
Heightened Def Con from 2.22107e-008 to 2.22107e-008
Heightened Def Con from 2.22107e-008 to 2.22107e-008
Heightened Def Con from 2.22107e-008 to 2.22107e-008
Heightened Def Con from 2.22109e-008 to 2.22109e-008
Heightened Def Con from 2.22109e-008 to 2.22109e-008
Heightened Def Con from 2.2211e-008 to 2.2211e-008
Heightened Def Con from 2.2211e-008 to 2.2211e-008
Heightened Def Con from 2.22111e-008 to 2.22111e-008
Heightened Def Con from 2.22112e-008 to 2.22112e-008
Heightened Def Con from 2.22113e-008 to 2.22113e-008
Heightened Def Con from 2.22113e-008 to 2.22113e-008
Heightened Def Con from 2.22113e-008 to 2.22113e-008
Heightened Def Con from 2.22113e-008 +to 2.22113e-008
Heightened Def Con from 2.22113e-008 to 2.22113e-008
Heightened Def Con from 2.22115e-008 to 2.22115e-008
Heightened Def Con from 2.22115e-008 to 2.22115e-008
Heightened Def Con from 2.22115e-008 to 2.22115e-008
Heightened Def Con from 2.2212e-008 to 2.2212e-008
Heightened Def Con from 2.22122e-008 to 2.22122e-008
Heightened Def Con from 2.22122e-008 to 2.22122e-008
Heightened Def Con from 2.22123e-008 to 2.22123e-008
Heightened Def Con from 2.22123e-008 to 2.22123e-008
Heightened Def Con from 2.22124e-008 to 2.22124e-008
Heightened Def Con from 2.22124e-008 to 2.22124e-008
Heightened Def Con from 2.22124e-008 to 2.22124e-008
Heightened Def Con from 2.22125e-008 to 2.22125e-008
Heightened Def Con from 2.22125e-008 to 2.22126e-008
Heightened Def Con from 2.22126e-008 to 2.22126e-008
Heightened Def Con from 2.22127e-008 to 2.22127e-008
Heightened Def Con from 2.22128e-008 to 2.22128e-008
Heightened Def Con from 2.22128e-008 to 2.22128e-008
Heightened Def Con from 2.22129e-008 to 2.22129e-008
Heightened Def Con from 2.22129e-008 to 2.22129e-008
Heightened Def Con from 2.2213e-008 to 2.2213e-008
Heightened Def Con from 2.2213e-008 to 2.2213e-008
Heightened Def Con from 2.2213e-008 to 2.2213e-008
Heightened Def Con from 2.2213e-008 to 2.2213e-008
Heightened Def Con from 2.2213e-008 +to 2.2215e-008
Heightened Def Con from 2.22151e-008 to 2.22151e-008
Heightened Def Con from 2.22152e-008 to 2.22152e-008
Heightened Def Con from 2.22152e-008 to 2.22152e-008
Heightened Def Con from 2.22154e-008 to 2.22154e-008
Heightened Def Con from 2.2216e-008 to 2.2216e-008
Heightened Def Con from 2.22162e-008 to 2.22164e-008
Heightened Def Con from 2.22168e-008 to 2.22168e-008
Heightened Def Con from 2.22168e-008 to 2.22168e-008
Heightened Def Con from 2.22171e-008 to 2.22171e-008
Heightened Def Con from 2.22171e-008 +to 2.22173e-008
Heightened Def Con from 2.22183e-008 to 2.22184e-008
Heightened Def Con from 2.22184e-008 to 2.22184e-008
Heightened Def Con from 2.22187e-008 to 2.22187e-008
Heightened Def Con from 2.22187e-008 to 2.22187e-008
Heightened Def Con from 2.22188e-008 to 2.22188e-008
Heightened Def Con from 2.22188e-008 to 2.22188e-008
Heightened Def Con from 2.22188e-008 to 2.22188e-008
Heightened Def Con from 2.22188e-008 to 2.22188e-008
Heightened Def Con from 2.22188e-008 to 2.22188e-008
Heightened Def Con from 2.22188e-008 to 2.22189e-008
Heightened Def Con from 2.22191e-008 to 2.22191e-008
Heightened Def Con from 2.22191e-008 to 2.22192e-008
Heightened Def Con from 2.22192e-008 to 2.22192e-008
Heightened Def Con from 2.22193e-008 +to 2.22193e-008
Heightened Def Con from 2.22196e-008 to 2.22196e-008
Heightened Def Con from 2.22196e-008 to 2.22196e-008
Heightened Def Con from 2.22197e-008 to 2.22197e-008
Heightened Def Con from 2.22197e-008 to 2.22197e-008
Heightened Def Con from 2.22197e-008 to 2.22197e-008
Heightened Def Con from 2.22204e-008 to 2.22204e-008
Heightened Def Con from 2.22204e-008 to 2.22204e-008
Heightened Def Con from 2.22206e-008 to 2.22206e-008
Heightened Def Con from 2.22208e-008 to 2.22208e-008
Heightened Def Con from 2.22208e-008 to 2.22208e-008
Heightened Def Con from 2.22209e-008 to 2.22209e-008
Heightened Def Con from 2.2221e-008 +to 2.2221e-008
Heightened Def Con from 2.22212e-008 to 2.22212e-008
Heightened Def Con from 2.22213e-008 to 2.22214e-008
Heightened Def Con from 2.22214e-008 to 2.22214e-008
Heightened Def Con from 2.22214e-008 +to 2.22214e-008
Heightened Def Con from 2.22215e-008 to 2.22215e-008
Heightened Def Con from 2.2222e-008 to 2.2222e-008
Heightened Def Con from 2.2222e-008 to 2.22221e-008
Heightened Def Con from 2.22221e-008 to 2.22221e-008
Heightened Def Con from 2.22221e-008 to 2.22222e-008
Heightened Def Con from 2.22222e-008 to 2.22222e-008
Heightened Def Con from 2.22222e-008 to 2.22222e-008
Heightened Def Con from 2.22222e-008 to 2.22222e-008
Heightened Def Con from 2.22222e-008 to 2.22222e-008
Heightened Def Con from 2.22222e-008 +to 2.22223e-008
Heightened Def Con from 2.22224e-008 to 2.22224e-008
Heightened Def Con from 2.22224e-008 to 2.22224e-008
Heightened Def Con from 2.22228e-008 to 2.22228e-008
Heightened Def Con from 2.22228e-008 to 2.22229e-008
Heightened Def Con from 2.2223e-008 to 2.2223e-008
Heightened Def Con from 2.2223e-008 +to 2.22231e-008
Heightened Def Con from 2.22231e-008 to 2.22231e-008
Heightened Def Con from 2.22231e-008 to 2.22231e-008
Heightened Def Con from 2.22231e-008 to 2.22231e-008
Heightened Def Con from 2.22231e-008 +to 2.22231e-008
Heightened Def Con from 2.22232e-008 to 2.22232e-008
Heightened Def Con from 2.22232e-008 +to 2.22235e-008
Heightened Def Con from 2.22235e-008 to 2.22235e-008
Heightened Def Con from 2.22235e-008 