Circuit: * C:\users\leonardo\Desktop\FSAE\inverter-simulation\test_LV.asc

WARNING: Specified period is not longer than the sum of Trise, Tfall, and Ton for v1.  Increasing period to 0.12
.OP point found by inspection.

Date: Sat May 13 18:42:56 2023
Total elapsed time: 0.024 seconds.

tnom = 27
temp = 27
method = modified trap
totiter = 234
traniter = 234
tranpoints = 118
accept = 118
rejected = 0
matrix size = 4
fillins = 0
solver = Normal
Matrix Compiler1: 100 bytes object code size  0.1/0.1/[0.1]
Matrix Compiler2: 248 bytes object code size  0.1/0.1/[0.1]

