Circuit: * C:\users\leonardo\Desktop\FSAE\inverter-simulation\parallel-shit\test_LV.asc

Limiting rise time of source v1 to 6.25e-006
Limiting fall time of source v1 to 6.25e-006
.OP point found by inspection.

Date: Sun May 14 18:31:39 2023
Total elapsed time: 0.050 seconds.

tnom = 27
temp = 27
method = modified trap
totiter = 630
traniter = 630
tranpoints = 316
accept = 270
rejected = 46
matrix size = 4
fillins = 0
solver = Normal
Matrix Compiler1:       6 opcodes  0.1/[0.1]/0.1
Matrix Compiler2: 248 bytes object code size  0.1/0.1/[0.1]

