Circuit: * C:\users\leonardo\Desktop\FSAE\inverter-simulation\parallel-shit\testigbt.asc

WARNING: Node N005 is floating.

Instance "m1": Length shorter than recommended for a level 1 MOSFET.
Direct Newton iteration for .op point succeeded.

Date: Sat May 20 09:51:26 2023
Total elapsed time: 0.091 seconds.

tnom = 27
temp = 27
method = modified trap
totiter = 10366
traniter = 10341
tranpoints = 2974
accept = 2095
rejected = 879
matrix size = 7
fillins = 0
solver = Normal
Matrix Compiler1: 276 bytes object code size  0.2/0.1/[0.1]
Matrix Compiler2: off  [0.1]/0.1/0.2

