Circuit: * C:\users\leonardo\Desktop\FSAE\inverter-simulation\parallel-shit\test_LV.asc

Direct Newton iteration for .op point succeeded.

Date: Tue May 16 13:38:43 2023
Total elapsed time: 0.035 seconds.

tnom = 27
temp = 27
method = modified trap
totiter = 611
traniter = 608
tranpoints = 305
accept = 210
rejected = 95
matrix size = 4
fillins = 0
solver = Normal
Matrix Compiler1: 100 bytes object code size  0.1/0.1/[0.1]
Matrix Compiler2:      21 opcodes  0.1/[0.1]/0.1

