Circuit: * C:\users\leonardo\Desktop\FSAE\inverter-simulation\main-attempt\inverter-spice-nmos.asc

WARNING: Node N012 is floating.

Instance "m1": Length shorter than recommended for a level 1 MOSFET.
Direct Newton iteration for .op point succeeded.

Date: Mon May 22 13:35:32 2023
Total elapsed time: 0.081 seconds.

tnom = 27
temp = 27
method = modified trap
totiter = 2778
traniter = 2753
tranpoints = 1329
accept = 909
rejected = 420
matrix size = 16
fillins = 1
solver = Normal
Matrix Compiler1: 780 bytes object code size  0.5/0.3/[0.3]
Matrix Compiler2: off  [0.2]/0.3/0.3

