Circuit: * C:\users\leonardo\Desktop\FSAE\inverter-simulation\main-attempt\inverter-spice-nmos.asc

Limiting rise time of source v2 to 6.25e-006
Limiting fall time of source v2 to 6.25e-006
WARNING: Node N014 is floating.

Instance "m1": Length shorter than recommended for a level 1 MOSFET.
Direct Newton iteration for .op point succeeded.

Date: Thu Jun 15 15:38:39 2023
Total elapsed time: 0.094 seconds.

tnom = 27
temp = 27
method = modified trap
totiter = 4011
traniter = 3986
tranpoints = 1994
accept = 1601
rejected = 393
matrix size = 19
fillins = 1
solver = Normal
Matrix Compiler1: 930 bytes object code size  0.5/0.3/[0.3]
Matrix Compiler2: off  [0.3]/0.3/0.4

