Circuit: * C:\users\leonardo\Desktop\FSAE\inverter-simulation\main-attempt\inverter-spice.asc

Direct Newton iteration failed to find .op point.  (Use ".option noopiter" to skip.)
Starting Gmin stepping
Gmin = 10
Gmin = 1.07374
Gmin = 0.115292
Gmin = 0.0123794
Gmin = 0.00132923
Gmin = 0.000142725
Gmin = 1.5325e-005
Gmin = 1.6455e-006
Gmin = 1.76685e-007
Gmin = 1.89714e-008
vernier = 0.5
Gmin = 3.18287e-009
vernier = 0.666667
vernier = 0.333333
vernier = 0.166667
Gmin = 1.45338e-009
vernier = 0.0833333
vernier = 0.0416667
vernier = 0.0208333
Gmin = 1.2792e-009
vernier = 0.0104167
vernier = 0.00520833
vernier = 0.00260417
vernier = 0.00130208
vernier = 0.000651042
Gmin = 1.28502e-009
vernier = 0.000868055
vernier = 0.000434028
Gmin = 0
Gmin stepping succeeded in finding the operating point.

Changing Tseed to 1e-010
Changing Tseed to 1e-012
Changing Tseed to 1e-009
Changing Tseed to 1e-013
Changing Tseed to 1e-008
Changing Tseed to 1e-014
Changing Tseed to 1e-007
Changing Tseed to 1e-015
Heightened Def Con from 1.40144e-015 to 9.09044e-015
Heightened Def Con from 9.12744e-015 +to 7.7792e-014
Heightened Def Con from 7.7794e-014 to 1.08371e-013
Heightened Def Con from 1.08371e-013 +to 1.25139e-010
Heightened Def Con from 1.25139e-010 to 1.2515e-010
Heightened Def Con from 1.25173e-010 to 1.25185e-010
Heightened Def Con from 1.25291e-010 to 1.25325e-010
Heightened Def Con from 1.25464e-010 to 1.25708e-010
Heightened Def Con from 1.25708e-010 to 1.25712e-010
Heightened Def Con from 1.25712e-010 +to 1.25723e-010
Heightened Def Con from 1.25782e-010 to 1.26057e-010
Heightened Def Con from 1.26151e-010 to 1.26212e-010
Heightened Def Con from 1.26249e-010 to 1.2628e-010
Heightened Def Con from 1.2628e-010 to 1.26284e-010
Heightened Def Con from 1.26284e-010 to 1.26349e-010
Heightened Def Con from 1.26368e-010 to 2.51369e-010
Heightened Def Con from 2.51369e-010 to 2.51369e-010
Heightened Def Con from 2.51369e-010 to 2.514e-010
Heightened Def Con from 2.514e-010 to 2.514e-010
Heightened Def Con from 2.514e-010 to 2.51401e-010
Heightened Def Con from 2.51401e-010 to 2.51412e-010
Heightened Def Con from 2.51436e-010 to 2.51447e-010
Heightened Def Con from 2.51505e-010 to 2.5157e-010
Heightened Def Con from 2.5157e-010 to 2.51585e-010
Heightened Def Con from 2.51782e-010 to 2.51786e-010
Heightened Def Con from 2.51787e-010 to 2.52061e-010
Heightened Def Con from 2.52062e-010 to 2.5231e-010
Heightened Def Con from 2.52317e-010 +to 2.52356e-010
Heightened Def Con from 2.52356e-010 to 2.5236e-010
Heightened Def Con from 2.5236e-010 to 2.52421e-010
Heightened Def Con from 2.52421e-010 to 2.52429e-010
Heightened Def Con from 2.52429e-010 to 2.52437e-010
Heightened Def Con from 2.52479e-010 to 2.52479e-010
Heightened Def Con from 2.52479e-010 to 2.52487e-010
Heightened Def Con from 2.52487e-010 to 2.52522e-010
Heightened Def Con from 2.52552e-010 to 2.52617e-010
Heightened Def Con from 2.52617e-010 to 2.52651e-010
Heightened Def Con from 2.52659e-010 to 2.52693e-010
Heightened Def Con from 2.52762e-010 to 2.52773e-010
Heightened Def Con from 2.528e-010 to 2.52812e-010
Heightened Def Con from 2.52915e-010 to 2.52916e-010
Heightened Def Con from 2.52916e-010 to 2.5292e-010
Heightened Def Con from 2.5295e-010 to 2.52984e-010
Heightened Def Con from 2.53038e-010 to 2.53042e-010
Heightened Def Con from 2.53042e-010 to 2.53073e-010
Heightened Def Con from 2.53073e-010 +to 2.53119e-010
Heightened Def Con from 2.53166e-010 to 2.53173e-010
Heightened Def Con from 2.53175e-010 to 2.53209e-010
Heightened Def Con from 2.53209e-010 to 2.5324e-010
Heightened Def Con from 2.5324e-010 to 2.53275e-010
Heightened Def Con from 2.53275e-010 to 2.53366e-010
Heightened Def Con from 2.53367e-010 to 2.53458e-010
Heightened Def Con from 2.53585e-010 +to 2.5359e-010
Heightened Def Con from 2.53598e-010 to 2.53599e-010
Heightened Def Con from 2.53603e-010 to 2.53637e-010
Heightened Def Con from 2.53672e-010 to 2.53706e-010
Heightened Def Con from 2.53778e-010 to 2.5387e-010
Heightened Def Con from 2.53876e-010 to 2.53967e-010
Heightened Def Con from 2.54029e-010 to 2.54041e-010
Heightened Def Con from 2.54041e-010 to 2.54132e-010
Heightened Def Con from 2.54133e-010 to 2.54194e-010
Heightened Def Con from 2.54194e-010 to 2.54194e-010
Heightened Def Con from 2.54194e-010 +to 2.54229e-010
Heightened Def Con from 2.54233e-010 to 2.54298e-010
Heightened Def Con from 2.54304e-010 to 2.54338e-010
Heightened Def Con from 2.54339e-010 to 2.54339e-010
Heightened Def Con from 2.54339e-010 to 2.54348e-010
Heightened Def Con from 2.54351e-010 to 2.54359e-010
Heightened Def Con from 2.54359e-010 to 2.54393e-010
Heightened Def Con from 2.54394e-010 to 2.54402e-010
Heightened Def Con from 2.54403e-010 +to 2.54442e-010
Heightened Def Con from 2.54442e-010 to 2.54476e-010
Heightened Def Con from 2.54477e-010 to 2.54488e-010
Heightened Def Con from 2.54504e-010 to 2.54568e-010
Heightened Def Con from 2.5472e-010 to 2.54732e-010
Heightened Def Con from 2.55026e-010 to 2.55091e-010
Heightened Def Con from 2.55091e-010 to 2.55122e-010
Heightened Def Con from 2.55122e-010 to 2.55214e-010
Heightened Def Con from 2.55215e-010 to 2.55227e-010
Heightened Def Con from 2.55282e-010 to 2.55285e-010
Heightened Def Con from 2.55285e-010 +to 2.55377e-010
Heightened Def Con from 2.55395e-010 to 2.5543e-010
Heightened Def Con from 2.55445e-010 to 2.5572e-010
Heightened Def Con from 2.55721e-010 to 2.55965e-010
Heightened Def Con from 2.55967e-010 to 2.55967e-010
Heightened Def Con from 2.55967e-010 to 2.55968e-010
Heightened Def Con from 2.55968e-010 to 2.55979e-010
Heightened Def Con from 2.56003e-010 to 2.56004e-010
Heightened Def Con from 2.56004e-010 +to 2.56035e-010
Heightened Def Con from 2.56048e-010 to 2.56083e-010
Heightened Def Con from 2.56087e-010 to 2.56087e-010
Heightened Def Con from 2.56283e-010 to 2.56288e-010
Heightened Def Con from 2.56289e-010 to 2.56296e-010
Heightened Def Con from 2.56296e-010 to 2.56388e-010
Heightened Def Con from 2.5639e-010 to 2.56424e-010
Heightened Def Con from 2.56433e-010 to 2.56494e-010
Heightened Def Con from 2.56494e-010 to 2.56529e-010
Heightened Def Con from 2.56537e-010 to 2.56602e-010
Heightened Def Con from 2.56669e-010 to 2.56734e-010
Heightened Def Con from 2.56905e-010 to 2.56966e-010
Heightened Def Con from 2.56972e-010 to 2.56976e-010
Heightened Def Con from 2.56981e-010 to 2.56984e-010
Heightened Def Con from 2.57008e-010 to 2.57099e-010
Heightened Def Con from 2.57214e-010 to 2.57218e-010
Heightened Def Con from 2.57219e-010 to 2.57226e-010
Heightened Def Con from 2.57249e-010 to 2.57314e-010
Heightened Def Con from 2.57323e-010 to 2.57384e-010
Heightened Def Con from 2.57384e-010 to 2.57418e-010
Heightened Def Con from 2.57472e-010 to 2.5748e-010
Heightened Def Con from 2.57497e-010 to 2.57501e-010
Heightened Def Con from 2.5751e-010 to 2.57517e-010
Heightened Def Con from 2.57576e-010 to 2.5761e-010
Heightened Def Con from 2.57611e-010 to 2.57612e-010
Heightened Def Con from 2.57619e-010 to 2.57627e-010
Heightened Def Con from 2.57708e-010 to 2.57716e-010
Heightened Def Con from 2.5817e-010 to 2.582e-010
Heightened Def Con from 2.58205e-010 to 2.58209e-010
Heightened Def Con from 2.58209e-010 to 2.58209e-010
Heightened Def Con from 2.58209e-010 to 2.58243e-010
Heightened Def Con from 2.58253e-010 +to 2.58261e-010
Heightened Def Con from 2.58474e-010 +to 2.58482e-010
Heightened Def Con from 2.58483e-010 to 2.5849e-010
Heightened Def Con from 2.58514e-010 to 2.58575e-010
Heightened Def Con from 2.58647e-010 to 2.58655e-010
Heightened Def Con from 2.58876e-010 to 2.5891e-010
Heightened Def Con from 2.58914e-010 to 2.59188e-010
Heightened Def Con from 2.59191e-010 to 2.59199e-010
Heightened Def Con from 2.59199e-010 to 2.59199e-010
Heightened Def Con from 2.59199e-010 to 2.59234e-010
Heightened Def Con from 2.59234e-010 to 2.59242e-010
Heightened Def Con from 2.59331e-010 to 2.59335e-010
Heightened Def Con from 2.59335e-010 to 2.59396e-010
Heightened Def Con from 2.59442e-010 to 2.59476e-010
Heightened Def Con from 2.595e-010 to 2.59748e-010
Heightened Def Con from 2.59771e-010 to 2.59775e-010
Heightened Def Con from 2.59775e-010 to 2.59783e-010
Heightened Def Con from 2.59801e-010 to 2.59835e-010
Heightened Def Con from 2.59838e-010 to 2.59838e-010
Heightened Def Con from 2.59838e-010 to 2.59839e-010
Heightened Def Con from 2.59899e-010 to 2.5996e-010
Heightened Def Con from 2.59971e-010 to 2.59971e-010
Heightened Def Con from 2.59971e-010 to 2.60033e-010
Heightened Def Con from 2.60075e-010 to 1.26008e-009
Heightened Def Con from 1.26008e-009 to 1.26017e-009
Heightened Def Con from 1.26017e-009 to 1.2602e-009
Heightened Def Con from 1.2602e-009 to 1.2602e-009
Heightened Def Con from 1.2602e-009 to 1.2602e-009
Heightened Def Con from 1.26021e-009 to 1.26022e-009
Heightened Def Con from 1.26022e-009 to 1.26022e-009
Heightened Def Con from 1.26022e-009 to 1.26022e-009
Heightened Def Con from 1.26022e-009 to 1.26023e-009
Heightened Def Con from 1.26023e-009 to 1.26047e-009
Heightened Def Con from 1.26048e-009 to 1.26051e-009
Heightened Def Con from 1.26052e-009 to 1.26052e-009
Heightened Def Con from 1.26052e-009 to 1.26077e-009
Heightened Def Con from 1.2612e-009 to 1.26121e-009
Heightened Def Con from 1.26123e-009 to 1.26126e-009
Heightened Def Con from 1.26126e-009 to 1.26127e-009
Heightened Def Con from 1.26127e-009 to 1.26127e-009
Heightened Def Con from 1.26128e-009 to 1.26129e-009
Heightened Def Con from 1.26129e-009 to 1.26129e-009
Heightened Def Con from 1.26129e-009 +to 1.2613e-009
Heightened Def Con from 1.2613e-009 to 1.2613e-009
Heightened Def Con from 1.2613e-009 to 1.26133e-009
Heightened Def Con from 1.26133e-009 to 1.26134e-009
Heightened Def Con from 1.26134e-009 to 1.26134e-009
Heightened Def Con from 1.26134e-009 to 1.26158e-009
Heightened Def Con from 1.26158e-009 to 1.26158e-009
Heightened Def Con from 1.26162e-009 to 1.26162e-009
Heightened Def Con from 1.26162e-009 to 1.26163e-009
Heightened Def Con from 1.26169e-009 to 1.2617e-009
Heightened Def Con from 1.2617e-009 to 1.26173e-009
Heightened Def Con from 1.26173e-009 to 1.26177e-009
Heightened Def Con from 1.26185e-009 to 1.26186e-009
Heightened Def Con from 1.26211e-009 to 1.26214e-009
Heightened Def Con from 1.26214e-009 +to 1.26245e-009
Heightened Def Con from 1.26245e-009 to 1.26254e-009
Heightened Def Con from 1.2626e-009 to 1.2626e-009
Heightened Def Con from 1.2626e-009 to 1.2626e-009
Heightened Def Con from 1.2626e-009 to 1.2626e-009
Heightened Def Con from 1.2626e-009 to 1.2626e-009
Heightened Def Con from 1.26261e-009 to 1.26262e-009
Heightened Def Con from 1.2627e-009 to 1.26273e-009
Heightened Def Con from 1.26276e-009 to 1.26277e-009
Heightened Def Con from 1.26277e-009 to 1.26278e-009
Heightened Def Con from 1.26278e-009 to 1.26278e-009
Heightened Def Con from 1.26279e-009 to 1.2628e-009
Heightened Def Con from 1.26283e-009 to 1.26283e-009
Heightened Def Con from 1.26283e-009 to 1.26284e-009
Heightened Def Con from 1.26285e-009 to 1.26285e-009
Heightened Def Con from 1.26286e-009 to 1.26292e-009
Heightened Def Con from 1.26292e-009 +to 1.26293e-009
Heightened Def Con from 1.26293e-009 +to 1.26296e-009
Heightened Def Con from 1.26296e-009 to 1.26296e-009
Heightened Def Con from 1.26309e-009 to 1.2631e-009
Heightened Def Con from 1.2631e-009 +to 1.26319e-009
Heightened Def Con from 1.26319e-009 to 1.2632e-009
Heightened Def Con from 1.2632e-009 to 1.26323e-009
Heightened Def Con from 1.26323e-009 to 1.26326e-009
Heightened Def Con from 1.26326e-009 to 1.26326e-009
Heightened Def Con from 1.26326e-009 to 1.26326e-009
Heightened Def Con from 1.26326e-009 to 1.26327e-009
Heightened Def Con from 1.26327e-009 to 1.26327e-009
Heightened Def Con from 1.26328e-009 to 1.26328e-009
Heightened Def Con from 1.26328e-009 to 1.26328e-009
Heightened Def Con from 1.2633e-009 to 1.2633e-009
Heightened Def Con from 1.2633e-009 to 1.2633e-009
Heightened Def Con from 1.26345e-009 to 1.26348e-009
Heightened Def Con from 1.26348e-009 to 1.26376e-009
Heightened Def Con from 1.26384e-009 to 1.26384e-009
Heightened Def Con from 1.26384e-009 to 1.26388e-009
Heightened Def Con from 1.26388e-009 to 1.26389e-009
Heightened Def Con from 1.26391e-009 to 1.26394e-009
Heightened Def Con from 1.26395e-009 to 1.26398e-009
Heightened Def Con from 1.26399e-009 to 1.264e-009
Heightened Def Con from 1.26408e-009 to 1.26412e-009
Heightened Def Con from 1.26422e-009 to 1.26428e-009
Heightened Def Con from 1.26428e-009 to 1.26428e-009
Heightened Def Con from 1.26428e-009 +to 1.26435e-009
Heightened Def Con from 1.26442e-009 to 1.26443e-009
Heightened Def Con from 1.26455e-009 to 1.26455e-009
Heightened Def Con from 1.26455e-009 +to 1.26455e-009
Heightened Def Con from 1.26455e-009 to 1.26455e-009
Heightened Def Con from 1.26455e-009 to 1.26456e-009
Heightened Def Con from 1.26456e-009 to 1.26459e-009
Heightened Def Con from 1.26459e-009 to 1.2646e-009
Heightened Def Con from 1.26467e-009 to 1.26467e-009
Heightened Def Con from 1.26467e-009 to 1.26467e-009
Heightened Def Con from 1.26467e-009 +to 1.2647e-009
Heightened Def Con from 1.2647e-009 to 1.26477e-009
Heightened Def Con from 1.26479e-009 to 1.2648e-009
Heightened Def Con from 1.2648e-009 to 1.26489e-009
Heightened Def Con from 1.26489e-009 to 1.2649e-009
Heightened Def Con from 1.2649e-009 +to 1.26492e-009
Heightened Def Con from 1.26499e-009 to 1.26502e-009
Heightened Def Con from 1.26504e-009 to 2.26504e-009
Heightened Def Con from 2.26504e-009 to 2.26504e-009
Heightened Def Con from 2.26504e-009 +to 2.26505e-009
Heightened Def Con from 2.26524e-009 to 2.26528e-009
Heightened Def Con from 2.26534e-009 to 2.26534e-009
Heightened Def Con from 2.26534e-009 to 2.26535e-009
Heightened Def Con from 2.26535e-009 to 2.26535e-009
Heightened Def Con from 2.26535e-009 to 2.26536e-009
Heightened Def Con from 2.26537e-009 +to 2.26537e-009
Heightened Def Con from 2.26537e-009 to 2.26541e-009
Heightened Def Con from 2.26542e-009 to 2.26542e-009
Heightened Def Con from 2.26542e-009 to 2.26548e-009
Heightened Def Con from 2.2655e-009 to 2.26554e-009
Heightened Def Con from 2.26554e-009 to 2.26558e-009
Heightened Def Con from 2.2656e-009 to 2.26561e-009
Heightened Def Con from 2.26561e-009 to 2.26562e-009
Heightened Def Con from 2.26563e-009 to 2.26563e-009
Heightened Def Con from 2.26563e-009 to 2.26564e-009
Heightened Def Con from 2.2657e-009 to 2.2657e-009
Heightened Def Con from 2.2657e-009 to 2.26571e-009
Heightened Def Con from 2.26576e-009 to 2.26576e-009
Heightened Def Con from 2.26577e-009 to 2.26583e-009
Heightened Def Con from 2.26583e-009 to 2.26583e-009
Heightened Def Con from 2.26583e-009 to 2.26583e-009
Heightened Def Con from 2.26583e-009 to 2.26584e-009
Heightened Def Con from 2.26584e-009 to 2.26587e-009
Heightened Def Con from 2.26588e-009 to 2.26589e-009
Heightened Def Con from 2.2659e-009 to 2.26596e-009
Heightened Def Con from 2.26596e-009 to 2.26596e-009
Heightened Def Con from 2.26596e-009 to 2.26602e-009
Heightened Def Con from 2.26631e-009 +to 2.26632e-009
Heightened Def Con from 2.26632e-009 to 2.26636e-009
Heightened Def Con from 2.26649e-009 to 2.26649e-009
Heightened Def Con from 2.26649e-009 to 2.2665e-009
Heightened Def Con from 2.2665e-009 to 2.26653e-009
Heightened Def Con from 2.26654e-009 to 2.26655e-009
Heightened Def Con from 2.26655e-009 to 2.26655e-009
Heightened Def Con from 2.26656e-009 +to 2.26656e-009
Heightened Def Con from 2.26656e-009 to 2.26656e-009
Heightened Def Con from 2.26656e-009 to 2.26659e-009
Heightened Def Con from 2.2666e-009 to 2.2666e-009
Heightened Def Con from 2.26661e-009 to 2.26688e-009
Heightened Def Con from 2.26688e-009 to 2.26689e-009
Heightened Def Con from 2.2669e-009 to 2.26717e-009
Heightened Def Con from 2.26717e-009 to 2.26718e-009
Heightened Def Con from 2.26718e-009 +to 2.26719e-009
Heightened Def Con from 2.26719e-009 +to 2.26725e-009
Heightened Def Con from 2.26725e-009 to 2.26725e-009
Heightened Def Con from 2.26725e-009 to 2.28288e-009
Heightened Def Con from 2.28288e-009 to 2.28291e-009
Heightened Def Con from 2.28292e-009 to 2.28292e-009
Heightened Def Con from 2.28292e-009 +to 2.28296e-009
Heightened Def Con from 2.28296e-009 to 2.28296e-009
Heightened Def Con from 2.28296e-009 to 2.28296e-009
Heightened Def Con from 2.28296e-009 to 2.283e-009
Heightened Def Con from 2.283e-009 to 2.283e-009
Heightened Def Con from 2.283e-009 to 2.283e-009
Heightened Def Con from 2.28301e-009 to 2.28304e-009
Heightened Def Con from 2.28309e-009 to 2.28312e-009
Heightened Def Con from 2.28313e-009 to 2.28322e-009
Heightened Def Con from 2.28323e-009 to 2.28324e-009
Heightened Def Con from 2.28324e-009 to 2.28324e-009
Heightened Def Con from 2.28324e-009 to 2.28325e-009
Heightened Def Con from 2.28331e-009 to 2.28332e-009
Heightened Def Con from 2.28332e-009 to 2.28338e-009
Heightened Def Con from 2.28338e-009 to 2.28339e-009
Heightened Def Con from 2.28339e-009 to 2.28345e-009
Heightened Def Con from 2.28347e-009 to 2.28347e-009
Heightened Def Con from 2.28347e-009 to 2.28353e-009
Heightened Def Con from 2.28353e-009 to 2.28353e-009
Heightened Def Con from 2.28364e-009 to 2.28367e-009
Heightened Def Con from 2.28379e-009 to 2.2838e-009
Heightened Def Con from 2.2838e-009 to 2.28381e-009
Heightened Def Con from 2.28381e-009 +to 2.28382e-009
Heightened Def Con from 2.28383e-009 +to 2.28389e-009
Heightened Def Con from 2.28389e-009 to 2.2839e-009
Heightened Def Con from 2.28392e-009 to 2.28393e-009
Heightened Def Con from 2.28393e-009 to 2.28396e-009
Heightened Def Con from 2.28397e-009 to 2.28397e-009
Heightened Def Con from 2.28397e-009 to 2.28404e-009
Heightened Def Con from 2.28404e-009 to 2.28405e-009
Heightened Def Con from 2.28405e-009 to 2.28405e-009
Heightened Def Con from 2.28405e-009 to 2.28405e-009
Heightened Def Con from 2.28414e-009 to 2.28414e-009
Heightened Def Con from 2.28414e-009 to 2.28415e-009
Heightened Def Con from 2.28415e-009 to 2.28415e-009
Heightened Def Con from 2.28415e-009 to 2.28416e-009
Heightened Def Con from 2.28416e-009 to 2.28419e-009
Heightened Def Con from 2.28419e-009 to 2.28422e-009
Heightened Def Con from 2.28423e-009 to 2.28424e-009
Heightened Def Con from 2.28424e-009 +to 2.30011e-009
Heightened Def Con from 2.30013e-009 to 2.30019e-009
Heightened Def Con from 2.30019e-009 +to 2.30022e-009
Heightened Def Con from 2.30023e-009 to 2.3003e-009
Heightened Def Con from 2.3003e-009 to 2.30031e-009
Heightened Def Con from 2.3005e-009 to 2.3005e-009
Heightened Def Con from 2.3005e-009 to 2.30051e-009
Heightened Def Con from 2.30052e-009 to 2.30053e-009
Heightened Def Con from 2.30053e-009 to 2.30053e-009
Heightened Def Con from 2.30053e-009 to 2.30053e-009
Heightened Def Con from 2.30053e-009 to 2.30057e-009
Heightened Def Con from 2.30057e-009 to 2.30057e-009
Heightened Def Con from 2.30057e-009 to 2.30084e-009
Heightened Def Con from 2.30084e-009 to 2.30109e-009
Heightened Def Con from 2.30109e-009 to 2.30112e-009
Heightened Def Con from 2.30112e-009 to 2.30112e-009
Heightened Def Con from 2.30114e-009 to 2.30117e-009
Heightened Def Con from 2.30117e-009 to 2.30118e-009
Heightened Def Con from 2.30125e-009 to 2.30126e-009
Heightened Def Con from 2.30126e-009 to 2.30132e-009
Heightened Def Con from 2.30132e-009 to 2.30135e-009
Heightened Def Con from 2.30135e-009 to 2.30136e-009
Heightened Def Con from 2.30136e-009 to 2.30136e-009
Heightened Def Con from 2.30136e-009 to 2.30137e-009
Heightened Def Con from 2.3015e-009 to 2.30153e-009
Heightened Def Con from 2.30153e-009 +to 2.30159e-009
Heightened Def Con from 2.3016e-009 to 2.3016e-009
Heightened Def Con from 2.3016e-009 to 2.3016e-009
Heightened Def Con from 2.30161e-009 to 2.30161e-009
Heightened Def Con from 2.30161e-009 to 2.31724e-009
Heightened Def Con from 2.31731e-009 to 2.31734e-009
Heightened Def Con from 2.31751e-009 to 2.31751e-009
Heightened Def Con from 2.31751e-009 to 2.31752e-009
Heightened Def Con from 2.31752e-009 to 2.31756e-009
Heightened Def Con from 2.31757e-009 to 2.31758e-009
Heightened Def Con from 2.31758e-009 to 2.31761e-009
Heightened Def Con from 2.31767e-009 to 2.31768e-009
Heightened Def Con from 2.3177e-009 to 2.31771e-009
Heightened Def Con from 2.31771e-009 to 2.31771e-009
Heightened Def Con from 2.31771e-009 to 2.31775e-009
Heightened Def Con from 2.31776e-009 +to 2.3178e-009
Heightened Def Con from 2.31783e-009 to 2.31784e-009
Heightened Def Con from 2.31802e-009 to 2.31805e-009
Heightened Def Con from 2.31805e-009 +to 2.31811e-009
Heightened Def Con from 2.31811e-009 to 2.31811e-009
Heightened Def Con from 2.31811e-009 +to 2.31812e-009
Heightened Def Con from 2.31816e-009 to 2.31822e-009
Heightened Def Con from 2.31829e-009 +to 2.44335e-009
Heightened Def Con from 2.44336e-009 to 2.44336e-009
Heightened Def Con from 2.44336e-009 to 2.44336e-009
Heightened Def Con from 2.44336e-009 to 2.44336e-009
Heightened Def Con from 2.44337e-009 to 2.44337e-009
Heightened Def Con from 2.44337e-009 +to 2.44344e-009
Heightened Def Con from 2.44344e-009 to 2.44344e-009
Heightened Def Con from 2.44344e-009 to 2.44346e-009
Heightened Def Con from 2.44347e-009 to 2.44372e-009
Heightened Def Con from 2.44384e-009 to 2.44387e-009
Heightened Def Con from 2.44387e-009 +to 2.44391e-009
Heightened Def Con from 2.44394e-009 +to 3.44421e-009
Heightened Def Con from 3.44463e-009 to 3.44469e-009
Heightened Def Con from 3.44469e-009 to 3.4447e-009
Heightened Def Con from 3.4449e-009 to 3.44496e-009
Heightened Def Con from 3.44503e-009 to 3.44503e-009
Heightened Def Con from 3.44514e-009 to 3.44521e-009
Heightened Def Con from 3.44549e-009 to 3.44555e-009
Heightened Def Con from 3.44564e-009 to 3.44564e-009
Heightened Def Con from 3.4458e-009 to 3.44605e-009
Heightened Def Con from 3.4461e-009 to 3.44616e-009
Heightened Def Con from 3.44616e-009 to 3.44622e-009
Heightened Def Con from 3.44622e-009 to 3.44624e-009
Heightened Def Con from 3.44637e-009 to 3.4464e-009
Heightened Def Con from 3.44642e-009 to 3.44648e-009
Heightened Def Con from 3.44648e-009 to 3.44649e-009
Heightened Def Con from 3.44649e-009 to 3.4465e-009
Heightened Def Con from 3.44652e-009 to 3.44653e-009
Heightened Def Con from 3.44659e-009 to 3.44663e-009
Heightened Def Con from 3.44664e-009 to 3.44664e-009
Heightened Def Con from 3.44673e-009 to 3.44677e-009
Heightened Def Con from 3.44677e-009 to 3.44677e-009
Heightened Def Con from 3.44679e-009 to 3.44679e-009
Heightened Def Con from 3.4468e-009 to 3.4468e-009
Heightened Def Con from 3.4468e-009 to 3.44681e-009
Heightened Def Con from 3.4469e-009 to 3.44691e-009
Heightened Def Con from 3.44691e-009 to 3.44692e-009
Heightened Def Con from 3.44692e-009 to 3.44693e-009
Heightened Def Con from 3.44696e-009 to 3.447e-009
Heightened Def Con from 3.44703e-009 to 3.44706e-009
Heightened Def Con from 3.44706e-009 to 3.44712e-009
Heightened Def Con from 3.4472e-009 to 3.4472e-009
Heightened Def Con from 3.4472e-009 to 3.4472e-009
Heightened Def Con from 3.4472e-009 +to 3.44726e-009
Heightened Def Con from 3.44728e-009 to 3.44729e-009
Heightened Def Con from 3.44729e-009 to 3.44729e-009
Heightened Def Con from 3.44729e-009 to 3.4473e-009
Heightened Def Con from 3.4473e-009 to 3.4473e-009
Heightened Def Con from 3.4473e-009 to 3.44731e-009
Heightened Def Con from 3.44731e-009 to 3.44732e-009
Heightened Def Con from 3.44733e-009 to 3.44733e-009
Heightened Def Con from 3.44733e-009 to 3.44733e-009
Heightened Def Con from 3.44733e-009 to 3.44733e-009
Heightened Def Con from 3.44733e-009 to 3.44734e-009
Heightened Def Con from 3.44734e-009 to 3.44734e-009
Heightened Def Con from 3.44735e-009 +to 3.44736e-009
Heightened Def Con from 3.44749e-009 +to 3.4475e-009
Heightened Def Con from 3.4475e-009 to 3.44751e-009
Heightened Def Con from 3.44766e-009 to 3.44766e-009
Heightened Def Con from 3.44766e-009 to 3.44772e-009
Heightened Def Con from 3.44776e-009 to 3.44785e-009
Heightened Def Con from 3.44785e-009 to 3.44786e-009
Heightened Def Con from 3.44786e-009 to 3.44786e-009
Heightened Def Con from 3.44786e-009 to 3.44787e-009
Heightened Def Con from 3.44797e-009 to 3.44798e-009
Heightened Def Con from 3.44798e-009 to 3.44799e-009
Heightened Def Con from 3.44799e-009 to 3.44802e-009
Heightened Def Con from 3.44802e-009 to 3.44803e-009
Heightened Def Con from 3.44803e-009 to 3.44806e-009
Heightened Def Con from 3.44806e-009 to 3.4481e-009
Heightened Def Con from 3.4481e-009 to 3.44837e-009
Heightened Def Con from 3.44849e-009 to 3.4485e-009
Heightened Def Con from 3.4485e-009 to 3.44851e-009
Heightened Def Con from 3.44853e-009 to 3.44862e-009
Heightened Def Con from 3.44862e-009 to 3.44864e-009
Heightened Def Con from 3.44864e-009 to 3.44865e-009
Heightened Def Con from 3.44876e-009 to 3.44877e-009
Heightened Def Con from 3.44877e-009 +to 3.44879e-009
Heightened Def Con from 3.44879e-009 to 3.44882e-009
Heightened Def Con from 3.44882e-009 to 3.44886e-009
Heightened Def Con from 3.44886e-009 to 3.44887e-009
Heightened Def Con from 3.44887e-009 +to 3.44888e-009
Heightened Def Con from 3.44888e-009 to 3.44897e-009
Heightened Def Con from 3.44897e-009 to 3.44904e-009
Heightened Def Con from 3.44905e-009 to 3.44906e-009
Heightened Def Con from 3.44906e-009 to 3.44931e-009
Heightened Def Con from 3.44931e-009 to 3.44937e-009
Heightened Def Con from 3.44937e-009 to 3.44937e-009
Heightened Def Con from 3.44937e-009 to 3.44937e-009
Heightened Def Con from 3.4494e-009 to 3.4494e-009
Heightened Def Con from 3.4494e-009 to 3.44965e-009
Heightened Def Con from 3.4498e-009 to 3.44984e-009
Heightened Def Con from 3.44987e-009 to 3.44988e-009
Heightened Def Con from 3.44989e-009 to 3.44989e-009
Heightened Def Con from 3.44989e-009 to 3.44991e-009
Heightened Def Con from 3.45001e-009 to 3.45005e-009
Heightened Def Con from 3.45005e-009 to 3.45009e-009
Heightened Def Con from 3.4501e-009 to 3.4501e-009
Heightened Def Con from 3.4501e-009 to 3.45017e-009
Heightened Def Con from 3.45017e-009 to 3.4502e-009
Heightened Def Con from 3.45037e-009 to 3.45043e-009
Heightened Def Con from 3.45043e-009 to 3.45049e-009
Heightened Def Con from 3.45052e-009 to 3.45052e-009
Heightened Def Con from 3.45052e-009 to 3.45248e-009
Heightened Def Con from 3.45248e-009 to 3.45273e-009
Heightened Def Con from 3.45275e-009 +to 3.45282e-009
Heightened Def Con from 3.45282e-009 to 3.45282e-009
Heightened Def Con from 3.45282e-009 to 3.45285e-009
Heightened Def Con from 3.45288e-009 to 3.45289e-009
Heightened Def Con from 3.45294e-009 to 3.45294e-009
Heightened Def Con from 3.45294e-009 to 3.45294e-009
Heightened Def Con from 3.45297e-009 to 3.45298e-009
Heightened Def Con from 3.45298e-009 to 3.45298e-009
Heightened Def Con from 3.45302e-009 to 3.45305e-009
Heightened Def Con from 3.45306e-009 to 3.45312e-009
Heightened Def Con from 3.45312e-009 to 3.45313e-009
Heightened Def Con from 3.45323e-009 to 3.45373e-009
Heightened Def Con from 3.45394e-009 to 3.45403e-009
Heightened Def Con from 3.45403e-009 to 3.45403e-009
Heightened Def Con from 3.45403e-009 to 3.45428e-009
Heightened Def Con from 3.45431e-009 to 3.45431e-009
Heightened Def Con from 3.45433e-009 to 3.45436e-009
Heightened Def Con from 3.45436e-009 to 3.45436e-009
Heightened Def Con from 3.45436e-009 to 3.45634e-009
Heightened Def Con from 3.45635e-009 to 3.45635e-009
Heightened Def Con from 3.45662e-009 to 3.45665e-009
Heightened Def Con from 3.45685e-009 to 3.45685e-009
Heightened Def Con from 3.45685e-009 to 3.45686e-009
Heightened Def Con from 3.45686e-009 to 3.45686e-009
Heightened Def Con from 3.45686e-009 to 3.45692e-009
Heightened Def Con from 3.45692e-009 to 3.45696e-009
Heightened Def Con from 3.45696e-009 to 3.45696e-009
Heightened Def Con from 3.4572e-009 to 3.45721e-009
Heightened Def Con from 3.45722e-009 to 3.45722e-009
Heightened Def Con from 3.45722e-009 to 3.45728e-009
Heightened Def Con from 3.45735e-009 to 3.45742e-009
Heightened Def Con from 3.45744e-009 to 3.45744e-009
Heightened Def Con from 3.45744e-009 +to 3.45745e-009
Heightened Def Con from 3.45746e-009 +to 3.45752e-009
Heightened Def Con from 3.45752e-009 to 3.45752e-009
Heightened Def Con from 3.45752e-009 to 3.45755e-009
Heightened Def Con from 3.45755e-009 +to 3.45757e-009
Heightened Def Con from 3.45757e-009 to 3.47322e-009
Heightened Def Con from 3.47329e-009 +to 3.47329e-009
Heightened Def Con from 3.4733e-009 to 3.47334e-009
Heightened Def Con from 3.47334e-009 to 3.47335e-009
Heightened Def Con from 3.47344e-009 to 3.47347e-009
Heightened Def Con from 3.47353e-009 to 3.47353e-009
Heightened Def Con from 3.47355e-009 to 3.47358e-009
Heightened Def Con from 3.47366e-009 +to 3.4737e-009
Heightened Def Con from 3.47374e-009 to 3.47374e-009
Heightened Def Con from 3.47374e-009 to 3.47377e-009
Heightened Def Con from 3.4738e-009 to 3.47384e-009
Heightened Def Con from 3.47384e-009 to 3.47384e-009
Heightened Def Con from 3.47398e-009 to 3.47398e-009
Heightened Def Con from 3.47398e-009 +to 3.47401e-009
Heightened Def Con from 3.47401e-009 to 3.48967e-009
Heightened Def Con from 3.48967e-009 to 3.4897e-009
Heightened Def Con from 3.4897e-009 to 3.48974e-009
Heightened Def Con from 3.48974e-009 to 3.48974e-009
Heightened Def Con from 3.48974e-009 to 3.48974e-009
Heightened Def Con from 3.48985e-009 to 3.48985e-009
Heightened Def Con from 3.48985e-009 to 3.48994e-009
Heightened Def Con from 3.49005e-009 +to 3.49009e-009
Heightened Def Con from 3.49009e-009 to 3.49009e-009
Heightened Def Con from 3.49012e-009 to 3.49013e-009
Heightened Def Con from 3.49019e-009 to 3.49023e-009
Heightened Def Con from 3.49023e-009 +to 3.49222e-009
Heightened Def Con from 3.49227e-009 to 3.49236e-009
Heightened Def Con from 3.49242e-009 +to 3.49245e-009
Heightened Def Con from 3.49256e-009 to 3.49259e-009
Heightened Def Con from 3.49259e-009 +to 3.49263e-009
Heightened Def Con from 3.49263e-009 to 3.49269e-009
Heightened Def Con from 3.49269e-009 to 3.49269e-009
Heightened Def Con from 3.49279e-009 +to 3.49285e-009
Heightened Def Con from 3.49285e-009 to 3.49286e-009
Heightened Def Con from 3.49287e-009 to 3.4929e-009
Heightened Def Con from 3.4929e-009 to 3.49291e-009
Heightened Def Con from 3.49293e-009 to 3.49293e-009
Heightened Def Con from 3.49293e-009 to 3.49297e-009
Heightened Def Con from 3.49297e-009 to 3.49298e-009
Heightened Def Con from 3.49298e-009 to 3.49298e-009
Heightened Def Con from 3.49299e-009 to 3.49302e-009
Heightened Def Con from 3.49302e-009 to 3.49303e-009
Heightened Def Con from 3.49327e-009 +to 3.4933e-009
Heightened Def Con from 3.4933e-009 to 3.49331e-009
Heightened Def Con from 3.49331e-009 to 3.4934e-009
Heightened Def Con from 3.4936e-009 to 3.49361e-009
Heightened Def Con from 3.49367e-009 to 3.49373e-009
Heightened Def Con from 3.49373e-009 to 3.49377e-009
Heightened Def Con from 3.49394e-009 +to 3.49409e-009
Heightened Def Con from 3.49431e-009 to 3.49432e-009
Heightened Def Con from 3.49433e-009 to 3.49433e-009
Heightened Def Con from 3.49433e-009 to 3.49436e-009
Heightened Def Con from 3.49438e-009 to 3.49447e-009
Heightened Def Con from 3.49447e-009 to 3.49456e-009
Heightened Def Con from 3.49459e-009 to 3.49466e-009
Heightened Def Con from 3.49466e-009 to 3.49466e-009
Heightened Def Con from 3.49466e-009 to 3.49467e-009
Heightened Def Con from 3.49476e-009 to 3.49476e-009
Heightened Def Con from 3.49476e-009 to 3.49479e-009
Heightened Def Con from 3.49479e-009 to 3.49486e-009
Heightened Def Con from 3.49498e-009 to 3.49523e-009
Heightened Def Con from 3.49537e-009 to 3.4954e-009
Heightened Def Con from 3.4954e-009 to 3.49541e-009
Heightened Def Con from 3.49541e-009 to 3.49542e-009
Heightened Def Con from 3.49542e-009 to 3.49545e-009
Heightened Def Con from 3.49546e-009 to 3.49546e-009
Heightened Def Con from 3.49556e-009 +to 3.49557e-009
Heightened Def Con from 3.49557e-009 to 3.49558e-009
Heightened Def Con from 3.49558e-009 to 3.49564e-009
Heightened Def Con from 3.49564e-009 to 3.49614e-009
Heightened Def Con from 3.49614e-009 to 3.49615e-009
Heightened Def Con from 3.49617e-009 to 3.49617e-009
Heightened Def Con from 3.49617e-009 to 3.49623e-009
Heightened Def Con from 3.49623e-009 to 3.49623e-009
Heightened Def Con from 3.49638e-009 to 3.4964e-009
Heightened Def Con from 3.49646e-009 to 3.49646e-009
Heightened Def Con from 3.49646e-009 to 3.62146e-009
Heightened Def Con from 3.62152e-009 to 3.62153e-009
Heightened Def Con from 3.62155e-009 to 3.62155e-009
Heightened Def Con from 3.62155e-009 to 3.62155e-009
Heightened Def Con from 3.62155e-009 to 3.62158e-009
Heightened Def Con from 3.62158e-009 to 3.62158e-009
Heightened Def Con from 3.62158e-009 ++to 3.62183e-009
Heightened Def Con from 3.62183e-009 to 3.62183e-009
Heightened Def Con from 3.62185e-009 to 3.62191e-009
Heightened Def Con from 3.62195e-009 to 3.74695e-009
Heightened Def Con from 3.74702e-009 to 3.74709e-009
Heightened Def Con from 3.74709e-009 to 3.74733e-009
Heightened Def Con from 3.74734e-009 to 3.74735e-009
Heightened Def Con from 3.74739e-009 +to 3.7474e-009
Heightened Def Con from 3.74741e-009 to 3.74741e-009
Heightened Def Con from 3.74743e-009 to 3.74744e-009
Heightened Def Con from 3.74744e-009 to 3.74747e-009
Heightened Def Con from 3.74748e-009 to 3.74754e-009
Heightened Def Con from 3.7476e-009 to 3.74761e-009
Heightened Def Con from 3.74764e-009 to 3.74767e-009
Heightened Def Con from 3.7477e-009 +to 3.74771e-009
Heightened Def Con from 3.74772e-009 to 3.74796e-009
Heightened Def Con from 3.74796e-009 to 3.74797e-009
Heightened Def Con from 3.74804e-009 to 3.74804e-009
Heightened Def Con from 3.74805e-009 to 3.74805e-009
Heightened Def Con from 3.74805e-009 to 3.74814e-009
Heightened Def Con from 3.74814e-009 to 3.74815e-009
Heightened Def Con from 3.74818e-009 +to 3.74818e-009
Heightened Def Con from 3.74818e-009 to 3.74819e-009
Heightened Def Con from 3.74825e-009 to 3.74826e-009
Heightened Def Con from 3.74826e-009 to 3.74826e-009
Heightened Def Con from 3.74826e-009 to 3.74826e-009
Heightened Def Con from 3.74827e-009 +to 3.74855e-009
Heightened Def Con from 3.74855e-009 to 3.74858e-009
Heightened Def Con from 3.74858e-009 to 3.7486e-009
Heightened Def Con from 3.74864e-009 to 3.74865e-009
Heightened Def Con from 3.74876e-009 +to 3.74882e-009
Heightened Def Con from 3.74882e-009 to 3.74886e-009
Heightened Def Con from 3.74895e-009 to 3.74896e-009
Heightened Def Con from 3.74898e-009 to 3.74899e-009
Heightened Def Con from 3.74905e-009 to 3.74906e-009
Heightened Def Con from 3.74906e-009 to 3.74931e-009
Heightened Def Con from 3.74936e-009 +to 3.74937e-009
Heightened Def Con from 3.74948e-009 to 3.74951e-009
Heightened Def Con from 3.74951e-009 to 3.74951e-009
Heightened Def Con from 3.74952e-009 to 3.74952e-009
Heightened Def Con from 3.74952e-009 to 3.74953e-009
Heightened Def Con from 3.74953e-009 +to 3.74957e-009
Heightened Def Con from 3.74961e-009 to 3.74963e-009
Heightened Def Con from 3.74969e-009 to 3.7497e-009
Heightened Def Con from 3.74977e-009 to 3.7498e-009
Heightened Def Con from 3.7498e-009 to 3.74982e-009
Heightened Def Con from 3.74983e-009 to 3.74984e-009
Heightened Def Con from 3.7499e-009 to 3.7499e-009
Heightened Def Con from 3.7499e-009 to 3.74997e-009
Heightened Def Con from 3.74997e-009 to 3.74997e-009
Heightened Def Con from 3.74997e-009 to 3.75001e-009
Heightened Def Con from 3.75001e-009 to 3.75028e-009
Heightened Def Con from 3.75034e-009 to 3.75059e-009
Heightened Def Con from 3.75059e-009 to 3.75063e-009
Heightened Def Con from 3.75063e-009 to 3.75063e-009
Heightened Def Con from 3.75063e-009 to 3.75069e-009
Heightened Def Con from 3.75071e-009 to 3.75075e-009
Heightened Def Con from 3.75075e-009 to 3.75078e-009
Heightened Def Con from 3.75079e-009 to 3.7508e-009
Heightened Def Con from 3.75089e-009 to 3.75095e-009
Heightened Def Con from 3.751e-009 to 3.75103e-009
Heightened Def Con from 3.75103e-009 to 3.75104e-009
Heightened Def Con from 3.75104e-009 to 3.7511e-009
Heightened Def Con from 3.7512e-009 +to 3.75124e-009
Heightened Def Con from 3.75127e-009 to 3.75127e-009
Heightened Def Con from 3.75127e-009 to 3.75154e-009
Heightened Def Con from 3.75161e-009 to 3.75162e-009
Heightened Def Con from 3.75162e-009 to 3.75163e-009
Heightened Def Con from 3.75164e-009 to 3.75167e-009
Heightened Def Con from 3.75167e-009 to 3.7517e-009
Heightened Def Con from 3.7517e-009 to 3.75177e-009
Heightened Def Con from 3.75178e-009 to 3.75187e-009
Heightened Def Con from 3.75193e-009 to 3.75194e-009
Heightened Def Con from 3.75194e-009 to 3.75197e-009
Heightened Def Con from 3.75197e-009 to 3.75198e-009
Heightened Def Con from 3.752e-009 to 3.75203e-009
Heightened Def Con from 3.75203e-009 to 3.75203e-009
Heightened Def Con from 3.75203e-009 to 3.75209e-009
Heightened Def Con from 3.75209e-009 to 3.75213e-009
Heightened Def Con from 3.75213e-009 to 3.75214e-009
Heightened Def Con from 3.75222e-009 to 3.7525e-009
Heightened Def Con from 3.75256e-009 to 3.75262e-009
Heightened Def Con from 3.75265e-009 to 3.75271e-009
Heightened Def Con from 3.75271e-009 to 3.75277e-009
Heightened Def Con from 3.75277e-009 to 3.75279e-009
Heightened Def Con from 3.7528e-009 to 3.75283e-009
Heightened Def Con from 3.75284e-009 to 3.75284e-009
Heightened Def Con from 3.75284e-009 to 3.75285e-009
Heightened Def Con from 3.75293e-009 to 3.75296e-009
Heightened Def Con from 3.75296e-009 to 3.75297e-009
Heightened Def Con from 3.75301e-009 to 3.75307e-009
Heightened Def Con from 3.7531e-009 to 3.75338e-009
Heightened Def Con from 3.75344e-009 to 3.75345e-009
Heightened Def Con from 3.75349e-009 to 3.75349e-009
Heightened Def Con from 3.75351e-009 to 3.75352e-009
Heightened Def Con from 3.75352e-009 to 3.75352e-009
Heightened Def Con from 3.75352e-009 to 3.75358e-009
Heightened Def Con from 3.75358e-009 to 3.75358e-009
Heightened Def Con from 3.75358e-009 to 3.75359e-009
Heightened Def Con from 3.75364e-009 to 3.7537e-009
Heightened Def Con from 3.75371e-009 to 3.75372e-009
Heightened Def Con from 3.75375e-009 to 3.75375e-009
Heightened Def Con from 3.75375e-009 to 3.75379e-009
Heightened Def Con from 3.7538e-009 to 3.7538e-009
Heightened Def Con from 3.75387e-009 to 3.75414e-009
Heightened Def Con from 3.75414e-009 to 3.75414e-009
Heightened Def Con from 3.75414e-009 +to 3.75429e-009
Heightened Def Con from 3.75436e-009 to 3.75436e-009
Heightened Def Con from 3.75436e-009 to 3.75442e-009
Heightened Def Con from 3.75442e-009 to 3.75448e-009
Heightened Def Con from 3.75452e-009 to 3.75458e-009
Heightened Def Con from 3.75459e-009 +to 3.75465e-009
Heightened Def Con from 3.75465e-009 to 3.75471e-009
Heightened Def Con from 3.75471e-009 to 3.75496e-009
Heightened Def Con from 3.75497e-009 to 3.75503e-009
Heightened Def Con from 3.75503e-009 to 3.75504e-009
Heightened Def Con from 3.75508e-009 to 3.75508e-009
Heightened Def Con from 3.75508e-009 +to 3.75509e-009
Heightened Def Con from 3.7551e-009 to 3.75511e-009
Heightened Def Con from 3.75512e-009 to 3.75516e-009
Heightened Def Con from 3.75516e-009 to 3.75522e-009
Heightened Def Con from 3.75525e-009 to 3.75531e-009
Heightened Def Con from 3.75538e-009 to 3.75539e-009
Heightened Def Con from 3.75539e-009 +to 3.7554e-009
Heightened Def Con from 3.7554e-009 to 3.75544e-009
Heightened Def Con from 3.75544e-009 to 3.75545e-009
Heightened Def Con from 3.75545e-009 to 3.7557e-009
Heightened Def Con from 3.75579e-009 to 3.75583e-009
Heightened Def Con from 3.75583e-009 to 3.75584e-009
Heightened Def Con from 3.75584e-009 to 3.75585e-009
Heightened Def Con from 3.75585e-009 to 3.75594e-009
Heightened Def Con from 3.75601e-009 to 3.75601e-009
Heightened Def Con from 3.75601e-009 to 3.75602e-009
Heightened Def Con from 3.75602e-009 to 3.75603e-009
Heightened Def Con from 3.75603e-009 to 3.75606e-009
Heightened Def Con from 3.75606e-009 to 3.75607e-009
Heightened Def Con from 3.75613e-009 to 3.88308e-009
Heightened Def Con from 3.88308e-009 to 3.88308e-009
Heightened Def Con from 3.88308e-009 +to 3.88318e-009
Heightened Def Con from 3.88318e-009 to 3.88319e-009
Heightened Def Con from 3.88319e-009 to 3.88325e-009
Heightened Def Con from 3.88337e-009 +to 3.88346e-009
Heightened Def Con from 3.88353e-009 to 3.88551e-009
Heightened Def Con from 3.88551e-009 to 3.88553e-009
Heightened Def Con from 3.88565e-009 to 3.88565e-009
Heightened Def Con from 3.88565e-009 +to 3.88565e-009
Heightened Def Con from 3.88565e-009 +to 3.88565e-009
Heightened Def Con from 3.88565e-009 to 3.88572e-009
Heightened Def Con from 3.88572e-009 to 3.88573e-009
Heightened Def Con from 3.88576e-009 to 3.88577e-009
Heightened Def Con from 3.88577e-009 to 3.8858e-009
Heightened Def Con from 3.8858e-009 to 3.88587e-009
Heightened Def Con from 3.88588e-009 to 3.88589e-009
Heightened Def Con from 3.88589e-009 +to 3.88595e-009
Heightened Def Con from 3.886e-009 to 3.88604e-009
Heightened Def Con from 3.88604e-009 +to 3.88605e-009
Heightened Def Con from 3.88608e-009 to 3.88608e-009
Heightened Def Con from 3.88608e-009 to 3.88609e-009
Heightened Def Con from 3.8861e-009 to 3.88634e-009
Heightened Def Con from 3.88634e-009 +to 3.88641e-009
Heightened Def Con from 3.88643e-009 to 3.88645e-009
Heightened Def Con from 3.88646e-009 to 3.88652e-009
Heightened Def Con from 3.88652e-009 to 3.88653e-009
Heightened Def Con from 3.88653e-009 to 3.88654e-009
Heightened Def Con from 3.88654e-009 to 3.88655e-009
Heightened Def Con from 3.88659e-009 to 3.8866e-009
Heightened Def Con from 3.88665e-009 +to 3.88667e-009
Heightened Def Con from 3.8868e-009 to 3.88686e-009
Heightened Def Con from 3.88686e-009 +to 3.8869e-009
Heightened Def Con from 3.8869e-009 +to 3.88691e-009
Heightened Def Con from 3.88699e-009 to 3.88699e-009
Heightened Def Con from 3.88699e-009 to 3.88703e-009
Heightened Def Con from 3.88704e-009 to 3.8871e-009
Heightened Def Con from 3.8871e-009 to 3.8871e-009
Heightened Def Con from 3.8871e-009 to 3.8871e-009
Heightened Def Con from 3.8871e-009 to 3.88714e-009
Heightened Def Con from 3.88714e-009 to 3.88717e-009
Heightened Def Con from 3.88717e-009 to 3.88717e-009
Heightened Def Con from 3.88717e-009 to 3.88717e-009
Heightened Def Con from 3.88717e-009 to 3.88724e-009
Heightened Def Con from 3.88724e-009 to 3.88725e-009
Heightened Def Con from 3.88725e-009 to 3.88725e-009
Heightened Def Con from 3.88739e-009 to 3.8874e-009
Heightened Def Con from 3.8874e-009 to 3.8874e-009
Heightened Def Con from 3.8874e-009 to 3.8874e-009
Heightened Def Con from 3.8875e-009 to 3.88751e-009
Heightened Def Con from 3.88751e-009 to 3.88751e-009
Heightened Def Con from 3.88757e-009 to 3.8876e-009
Heightened Def Con from 3.88761e-009 +to 3.88761e-009
Heightened Def Con from 3.88761e-009 to 3.88762e-009
Heightened Def Con from 3.88763e-009 to 3.88766e-009
Heightened Def Con from 3.88768e-009 +to 3.88793e-009
Heightened Def Con from 3.88795e-009 to 3.88796e-009
Heightened Def Con from 3.88796e-009 to 3.88797e-009
Heightened Def Con from 3.88797e-009 to 3.88797e-009
Heightened Def Con from 3.88797e-009 to 3.88797e-009
Heightened Def Con from 3.88797e-009 to 3.88803e-009
Heightened Def Con from 3.88803e-009 to 3.88806e-009
Heightened Def Con from 3.88806e-009 to 3.88809e-009
Heightened Def Con from 3.88809e-009 to 3.8881e-009
Heightened Def Con from 3.8881e-009 to 3.88811e-009
Heightened Def Con from 3.88813e-009 to 3.88819e-009
Heightened Def Con from 3.8882e-009 to 3.88826e-009
Heightened Def Con from 3.88835e-009 to 3.88836e-009
Heightened Def Con from 3.88837e-009 to 3.8884e-009
Heightened Def Con from 3.88841e-009 ++to 3.88868e-009
Heightened Def Con from 3.88882e-009 to 3.88886e-009
Heightened Def Con from 3.88886e-009 to 3.88936e-009
Heightened Def Con from 3.88938e-009 to 3.88941e-009
Heightened Def Con from 3.88943e-009 to 3.88944e-009
Heightened Def Con from 3.88946e-009 to 3.88947e-009
Heightened Def Con from 3.88947e-009 to 3.88948e-009
Heightened Def Con from 3.88948e-009 to 3.88948e-009
Heightened Def Con from 3.88948e-009 to 3.88948e-009
Heightened Def Con from 3.88948e-009 to 3.88949e-009
Heightened Def Con from 3.88951e-009 to 3.88952e-009
Heightened Def Con from 3.88956e-009 to 3.8896e-009
Heightened Def Con from 3.88961e-009 to 3.88962e-009
Heightened Def Con from 3.88973e-009 to 3.88973e-009
Heightened Def Con from 3.88973e-009 to 3.88977e-009
Heightened Def Con from 3.8898e-009 +to 3.88984e-009
Heightened Def Con from 3.88984e-009 to 3.88984e-009
Heightened Def Con from 3.88984e-009 to 3.88984e-009
Heightened Def Con from 3.88984e-009 +to 3.88985e-009
Heightened Def Con from 3.88985e-009 to 3.88986e-009
Heightened Def Con from 3.88986e-009 to 3.88986e-009
Heightened Def Con from 3.88986e-009 +to 3.88986e-009
Heightened Def Con from 3.88986e-009 to 3.88987e-009
Heightened Def Con from 3.88987e-009 to 3.88994e-009
Heightened Def Con from 3.89009e-009 to 3.89015e-009
Heightened Def Con from 3.89016e-009 to 3.89017e-009
Heightened Def Con from 3.89019e-009 to 3.8902e-009
Heightened Def Con from 3.89021e-009 to 3.89022e-009
Heightened Def Con from 3.89022e-009 to 3.89023e-009
Heightened Def Con from 3.89026e-009 to 3.89026e-009
Heightened Def Con from 3.89027e-009 to 3.89028e-009
Heightened Def Con from 3.89029e-009 to 3.8903e-009
Heightened Def Con from 3.89032e-009 to 3.89032e-009
Heightened Def Con from 3.89033e-009 to 3.89037e-009
Heightened Def Con from 3.89037e-009 to 3.8904e-009
Heightened Def Con from 3.8904e-009 to 3.89041e-009
Heightened Def Con from 3.89046e-009 to 3.89242e-009
Heightened Def Con from 3.89243e-009 +to 3.89243e-009
Heightened Def Con from 3.89243e-009 to 3.8925e-009
Heightened Def Con from 3.8925e-009 to 3.89253e-009
Heightened Def Con from 3.89253e-009 to 3.89253e-009
Heightened Def Con from 3.89253e-009 to 3.89254e-009
Heightened Def Con from 3.89254e-009 to 3.89254e-009
Heightened Def Con from 3.89254e-009 to 3.89254e-009
Heightened Def Con from 3.89254e-009 to 3.89254e-009
Heightened Def Con from 3.8926e-009 to 3.8926e-009
Heightened Def Con from 3.8926e-009 +to 3.89264e-009
Heightened Def Con from 3.89264e-009 to 3.8927e-009
Heightened Def Con from 3.89275e-009 +to 3.89276e-009
Heightened Def Con from 3.89276e-009 to 3.89276e-009
Heightened Def Con from 3.89276e-009 to 3.89276e-009
Heightened Def Con from 3.89276e-009 to 3.89276e-009
Heightened Def Con from 3.89277e-009 to 3.89277e-009
Heightened Def Con from 3.89277e-009 to 3.89283e-009
Heightened Def Con from 3.89283e-009 +to 3.89286e-009
Heightened Def Con from 3.89294e-009 to 3.89294e-009
Heightened Def Con from 3.89294e-009 to 3.89295e-009
Heightened Def Con from 3.89297e-009 to 3.89297e-009
Heightened Def Con from 3.89297e-009 to 3.89298e-009
Heightened Def Con from 3.89298e-009 +to 3.89298e-009
Heightened Def Con from 3.89298e-009 to 3.89301e-009
Heightened Def Con from 3.89301e-009 to 3.89301e-009
Heightened Def Con from 3.89302e-009 to 3.89302e-009
Heightened Def Con from 3.89306e-009 to 3.89307e-009
Heightened Def Con from 3.89307e-009 to 3.89307e-009
Heightened Def Con from 3.8931e-009 to 3.8931e-009
Heightened Def Con from 3.89311e-009 +to 3.89314e-009
Heightened Def Con from 3.89324e-009 to 3.89327e-009
Heightened Def Con from 3.89327e-009 to 3.8933e-009
Heightened Def Con from 3.89331e-009 to 3.89331e-009
Heightened Def Con from 3.89338e-009 to 3.89342e-009
Heightened Def Con from 3.89343e-009 to 3.89349e-009
Heightened Def Con from 3.89349e-009 ++to 3.89547e-009
Heightened Def Con from 3.89567e-009 to 3.89567e-009
Heightened Def Con from 3.89567e-009 to 3.89573e-009
Heightened Def Con from 3.89577e-009 to 3.89583e-009
Heightened Def Con from 3.89601e-009 to 3.8961e-009
Heightened Def Con from 3.89621e-009 to 3.89622e-009
Heightened Def Con from 3.89622e-009 to 3.89671e-009
Heightened Def Con from 3.89679e-009 to 3.89688e-009
Heightened Def Con from 3.89688e-009 to 3.89689e-009
Heightened Def Con from 3.89689e-009 to 3.89692e-009
Heightened Def Con from 3.89692e-009 to 3.89716e-009
Heightened Def Con from 3.89718e-009 to 3.89745e-009
Heightened Def Con from 3.89747e-009 +to 3.8975e-009
Heightened Def Con from 3.8975e-009 to 3.89756e-009
Heightened Def Con from 3.89784e-009 +to 3.89786e-009
Heightened Def Con from 3.89792e-009 to 3.89819e-009
Heightened Def Con from 3.89826e-009 to 3.89829e-009
Heightened Def Con from 3.89829e-009 to 3.89832e-009
Heightened Def Con from 3.89833e-009 to 3.89839e-009
Heightened Def Con from 3.89839e-009 to 3.8984e-009
Heightened Def Con from 3.8984e-009 to 3.8984e-009
Heightened Def Con from 3.89842e-009 to 3.89848e-009
Heightened Def Con from 3.89848e-009 to 3.89849e-009
Heightened Def Con from 3.89849e-009 to 3.8985e-009
Heightened Def Con from 3.89863e-009 to 3.89867e-009
Heightened Def Con from 3.89867e-009 to 3.89868e-009
Heightened Def Con from 3.89882e-009 to 3.89883e-009
Heightened Def Con from 3.89883e-009 to 3.89889e-009
Heightened Def Con from 3.8989e-009 to 3.89918e-009
Heightened Def Con from 3.89922e-009 to 3.89928e-009
Heightened Def Con from 3.89928e-009 +to 3.89932e-009
Heightened Def Con from 3.89932e-009 to 3.89932e-009
Heightened Def Con from 3.89932e-009 to 3.89935e-009
Heightened Def Con from 3.89935e-009 to 3.89963e-009
Heightened Def Con from 3.89963e-009 to 3.89966e-009
Heightened Def Con from 3.89966e-009 +to 3.89969e-009
Heightened Def Con from 3.89969e-009 to 3.8997e-009
Heightened Def Con from 3.89978e-009 +to 3.89988e-009
Heightened Def Con from 3.89988e-009 to 3.89988e-009
Heightened Def Con from 3.89991e-009 to 3.89991e-009
Heightened Def Con from 3.89991e-009 to 3.90003e-009
Heightened Def Con from 3.90003e-009 to 3.90003e-009
Heightened Def Con from 3.90003e-009 to 3.90007e-009
Heightened Def Con from 3.90011e-009 +to 3.90015e-009
Heightened Def Con from 3.90015e-009 to 3.90016e-009
Heightened Def Con from 3.90028e-009 to 3.90031e-009
Heightened Def Con from 3.90031e-009 to 3.90034e-009
Heightened Def Con from 3.90034e-009 to 3.90034e-009
Heightened Def Con from 3.90034e-009 +to 3.9004e-009
Heightened Def Con from 3.9004e-009 to 3.90044e-009
Heightened Def Con from 3.9005e-009 to 3.9005e-009
Heightened Def Con from 3.90052e-009 +to 3.90052e-009
Heightened Def Con from 3.90052e-009 +to 3.90057e-009
Heightened Def Con from 3.90061e-009 to 3.90061e-009
Heightened Def Con from 3.90061e-009 to 3.90061e-009
Heightened Def Con from 3.90062e-009 ++to 3.90316e-009
Heightened Def Con from 3.90319e-009 to 3.90319e-009
Heightened Def Con from 3.9032e-009 to 3.90321e-009
Heightened Def Con from 3.90362e-009 to 3.90368e-009
Heightened Def Con from 3.90389e-009 to 3.90413e-009
Heightened Def Con from 3.90413e-009 to 3.90441e-009
Heightened Def Con from 3.90447e-009 to 3.90448e-009
Heightened Def Con from 3.90459e-009 to 3.9046e-009
Heightened Def Con from 3.90475e-009 to 3.90503e-009
Heightened Def Con from 3.9051e-009 to 3.90516e-009
Heightened Def Con from 3.90534e-009 to 3.90561e-009
Heightened Def Con from 3.9058e-009 to 3.90583e-009
Heightened Def Con from 3.90583e-009 to 3.90587e-009
Heightened Def Con from 3.90588e-009 to 3.90594e-009
Heightened Def Con from 3.90595e-009 to 3.90596e-009
Heightened Def Con from 3.90596e-009 to 3.90596e-009
Heightened Def Con from 3.90596e-009 to 3.90597e-009
Heightened Def Con from 3.90597e-009 to 3.906e-009
Heightened Def Con from 3.906e-009 to 4.031e-009
Heightened Def Con from 4.031e-009 +to 4.0311e-009
Heightened Def Con from 4.0311e-009 to 4.03113e-009
Heightened Def Con from 4.03114e-009 to 4.03114e-009
Heightened Def Con from 4.03114e-009 ++to 4.03129e-009
Heightened Def Con from 4.03129e-009 to 4.0313e-009
Heightened Def Con from 4.03131e-009 to 4.03131e-009
Heightened Def Con from 4.03131e-009 to 4.03134e-009
Heightened Def Con from 4.03134e-009 to 4.03135e-009
Heightened Def Con from 4.03135e-009 to 4.03135e-009
Heightened Def Con from 4.03136e-009 to 4.0314e-009
Heightened Def Con from 4.0314e-009 to 4.0314e-009
Heightened Def Con from 4.03141e-009 to 4.03141e-009
Heightened Def Con from 4.03142e-009 to 4.03146e-009
Heightened Def Con from 4.03146e-009 to 4.03149e-009
Heightened Def Con from 4.03149e-009 to 4.0315e-009
Heightened Def Con from 4.0315e-009 to 4.03152e-009
Heightened Def Con from 4.03162e-009 to 4.03162e-009
Heightened Def Con from 4.03162e-009 to 4.03163e-009
Heightened Def Con from 4.03163e-009 to 4.0319e-009
Heightened Def Con from 4.03192e-009 +to 4.03196e-009
Heightened Def Con from 4.03196e-009 to 4.03221e-009
Heightened Def Con from 4.03246e-009 to 4.0325e-009
Heightened Def Con from 4.0325e-009 to 4.03251e-009
Heightened Def Con from 4.03251e-009 to 4.03254e-009
Heightened Def Con from 4.03254e-009 ++to 4.0327e-009
Heightened Def Con from 4.03281e-009 to 4.03282e-009
Heightened Def Con from 4.03282e-009 to 4.03283e-009
Heightened Def Con from 4.03283e-009 to 4.03284e-009
Heightened Def Con from 4.03292e-009 to 4.03293e-009
Heightened Def Con from 4.03293e-009 to 4.03296e-009
Heightened Def Con from 4.03296e-009 to 4.03296e-009
Heightened Def Con from 4.03302e-009 +to 4.03306e-009
Heightened Def Con from 4.03306e-009 to 4.03312e-009
Heightened Def Con from 4.03319e-009 to 4.03319e-009
Heightened Def Con from 4.03319e-009 to 4.03319e-009
Heightened Def Con from 4.03319e-009 to 4.04882e-009
Heightened Def Con from 4.04883e-009 +to 4.04883e-009
Heightened Def Con from 4.04883e-009 to 4.04883e-009
Heightened Def Con from 4.04883e-009 to 4.04883e-009
Heightened Def Con from 4.04883e-009 +to 4.0489e-009
Heightened Def Con from 4.0489e-009 to 4.04891e-009
Heightened Def Con from 4.04899e-009 to 4.04903e-009
Heightened Def Con from 4.04903e-009 +to 4.04915e-009
Heightened Def Con from 4.04915e-009 to 4.04915e-009
Heightened Def Con from 4.04916e-009 to 4.04916e-009
Heightened Def Con from 4.04916e-009 to 4.04917e-009
Heightened Def Con from 4.04918e-009 to 4.04918e-009
Heightened Def Con from 4.04919e-009 to 4.04922e-009
Heightened Def Con from 4.04922e-009 to 4.04922e-009
Heightened Def Con from 4.04922e-009 to 4.04928e-009
Heightened Def Con from 4.04942e-009 ++to 4.05162e-009
Heightened Def Con from 4.05168e-009 to 4.05168e-009
Heightened Def Con from 4.05168e-009 to 4.05169e-009
Heightened Def Con from 4.05171e-009 to 4.05174e-009
Heightened Def Con from 4.05174e-009 +to 4.05175e-009
Heightened Def Con from 4.05219e-009 to 4.05225e-009
Heightened Def Con from 4.05235e-009 to 4.05237e-009
Heightened Def Con from 4.05242e-009 to 4.05243e-009
Heightened Def Con from 4.05252e-009 to 5.05252e-009
Heightened Def Con from 5.05253e-009 ++to 5.05327e-009
Heightened Def Con from 5.0534e-009 to 5.06903e-009
Heightened Def Con from 5.0692e-009 to 5.06926e-009
Heightened Def Con from 5.06929e-009 to 5.0693e-009
Heightened Def Con from 5.0693e-009 +to 5.06936e-009
Heightened Def Con from 5.06937e-009 to 5.1944e-009
Heightened Def Con from 5.1944e-009 to 5.19444e-009
Heightened Def Con from 5.19444e-009 to 5.19447e-009
Heightened Def Con from 5.19448e-009 to 5.19448e-009
Heightened Def Con from 5.19448e-009 to 5.19448e-009
Heightened Def Con from 5.19448e-009 to 5.19472e-009
Heightened Def Con from 5.19472e-009 to 5.19473e-009
Heightened Def Con from 5.19474e-009 to 5.19474e-009
Heightened Def Con from 5.19476e-009 to 5.19476e-009
Heightened Def Con from 5.19476e-009 +to 5.19479e-009
Heightened Def Con from 5.19479e-009 to 5.19479e-009
Heightened Def Con from 5.19479e-009 to 5.19483e-009
Heightened Def Con from 5.19483e-009 to 5.19483e-009
Heightened Def Con from 5.19483e-009 to 5.19485e-009
Heightened Def Con from 5.19485e-009 to 5.19485e-009
Heightened Def Con from 5.19485e-009 to 5.19486e-009
Heightened Def Con from 5.19489e-009 to 5.19517e-009
Heightened Def Con from 5.19517e-009 to 5.19517e-009
Heightened Def Con from 5.19517e-009 to 5.19521e-009
Heightened Def Con from 5.19521e-009 to 5.19524e-009
Heightened Def Con from 5.19524e-009 +to 5.19524e-009
Heightened Def Con from 5.19524e-009 to 5.19525e-009
Heightened Def Con from 5.19525e-009 to 5.19531e-009
Heightened Def Con from 5.19535e-009 to 5.19535e-009
Heightened Def Con from 5.19535e-009 to 5.19539e-009
Heightened Def Con from 5.19539e-009 to 5.19542e-009
Heightened Def Con from 5.19542e-009 to 5.19543e-009
Heightened Def Con from 5.1956e-009 to 5.19561e-009
Heightened Def Con from 5.19561e-009 to 5.19562e-009
Heightened Def Con from 5.19565e-009 to 5.19565e-009
Heightened Def Con from 5.19565e-009 +to 5.19568e-009
Heightened Def Con from 5.19568e-009 to 5.19568e-009
Heightened Def Con from 5.19568e-009 to 5.1957e-009
Heightened Def Con from 5.19571e-009 +to 5.19572e-009
Heightened Def Con from 5.19572e-009 to 5.19597e-009
Heightened Def Con from 5.19602e-009 to 5.19606e-009
Heightened Def Con from 5.19606e-009 to 5.19609e-009
Heightened Def Con from 5.19613e-009 to 5.19613e-009
Heightened Def Con from 5.19613e-009 to 5.1962e-009
Heightened Def Con from 5.19621e-009 to 5.19622e-009
Heightened Def Con from 5.19629e-009 to 5.19629e-009
Heightened Def Con from 5.19636e-009 to 5.19639e-009
Heightened Def Con from 5.1964e-009 to 5.19646e-009
Heightened Def Con from 5.19646e-009 to 5.19646e-009
Heightened Def Con from 5.19646e-009 to 5.19647e-009
Heightened Def Con from 5.19647e-009 to 5.19648e-009
Heightened Def Con from 5.19654e-009 to 5.19654e-009
Heightened Def Con from 5.19654e-009 to 5.19654e-009
Heightened Def Con from 5.19654e-009 to 5.19654e-009
Heightened Def Con from 5.19654e-009 to 5.19654e-009
Heightened Def Con from 5.19655e-009 to 5.19658e-009
Heightened Def Con from 5.19658e-009 to 5.19662e-009
Heightened Def Con from 5.19683e-009 to 5.32183e-009
Heightened Def Con from 5.32183e-009 to 5.32184e-009
Heightened Def Con from 5.32198e-009 to 5.32198e-009
Heightened Def Con from 5.32199e-009 to 5.32199e-009
Heightened Def Con from 5.32199e-009 to 5.32199e-009
Heightened Def Con from 5.32199e-009 to 6.32199e-009
Heightened Def Con from 6.32199e-009 +to 6.32199e-009
Heightened Def Con from 6.32199e-009 +to 6.32203e-009
Heightened Def Con from 6.32203e-009 to 6.32227e-009
Heightened Def Con from 6.32233e-009 +to 6.32239e-009
Heightened Def Con from 6.32241e-009 to 6.32247e-009
Heightened Def Con from 6.32247e-009 to 6.32253e-009
Heightened Def Con from 6.32258e-009 to 6.32258e-009
Heightened Def Con from 6.32259e-009 to 6.32265e-009
Heightened Def Con from 6.32265e-009 +to 6.33834e-009
Heightened Def Con from 6.33834e-009 to 6.33841e-009
Heightened Def Con from 6.33843e-009 to 6.33846e-009
Heightened Def Con from 6.33846e-009 to 6.33855e-009
Heightened Def Con from 6.33884e-009 to 6.33893e-009
Heightened Def Con from 6.33901e-009 to 6.3391e-009
Heightened Def Con from 6.3391e-009 to 6.33938e-009
Heightened Def Con from 6.33966e-009 to 6.46467e-009
Heightened Def Con from 6.46467e-009 to 6.4647e-009
Heightened Def Con from 6.46471e-009 to 6.46471e-009
Heightened Def Con from 6.46471e-009 to 6.46472e-009
Heightened Def Con from 6.46472e-009 +to 6.46482e-009
Heightened Def Con from 6.46482e-009 to 6.46484e-009
Heightened Def Con from 6.46485e-009 to 6.46485e-009
Heightened Def Con from 6.46485e-009 to 6.46486e-009
Heightened Def Con from 6.46494e-009 to 6.46495e-009
Heightened Def Con from 6.46495e-009 to 6.46495e-009
Heightened Def Con from 6.46495e-009 +to 6.46499e-009
Heightened Def Con from 6.46499e-009 to 6.46505e-009
Heightened Def Con from 6.46505e-009 to 6.46514e-009
Heightened Def Con from 6.46514e-009 to 6.46515e-009
Heightened Def Con from 6.46516e-009 to 6.46519e-009
Heightened Def Con from 6.46519e-009 to 6.46568e-009
Heightened Def Con from 6.46569e-009 to 6.46569e-009
Heightened Def Con from 6.4657e-009 to 6.4657e-009
Heightened Def Con from 6.4657e-009 to 6.4657e-009
Heightened Def Con from 6.4657e-009 to 6.46598e-009
Heightened Def Con from 6.46598e-009 +to 6.46601e-009
Heightened Def Con from 6.46601e-009 to 6.46601e-009
Heightened Def Con from 6.46601e-009 to 6.46605e-009
Heightened Def Con from 6.46605e-009 to 6.46605e-009
Heightened Def Con from 6.46605e-009 to 6.46605e-009
Heightened Def Con from 6.46605e-009 to 6.46608e-009
Heightened Def Con from 6.46608e-009 to 6.46612e-009
Heightened Def Con from 6.46612e-009 +to 6.46613e-009
Heightened Def Con from 6.46613e-009 to 6.46616e-009
Heightened Def Con from 6.46616e-009 to 6.46616e-009
Heightened Def Con from 6.46616e-009 to 6.46618e-009
Heightened Def Con from 6.46621e-009 to 6.46621e-009
Heightened Def Con from 6.46622e-009 to 6.46622e-009
Heightened Def Con from 6.46623e-009 to 6.46623e-009
Heightened Def Con from 6.46623e-009 to 6.46623e-009
Heightened Def Con from 6.46623e-009 to 6.46624e-009
Heightened Def Con from 6.46626e-009 to 6.46626e-009
Heightened Def Con from 6.46626e-009 to 6.46626e-009
Heightened Def Con from 6.46627e-009 +to 6.46628e-009
Heightened Def Con from 6.46631e-009 to 6.46631e-009
Heightened Def Con from 6.46631e-009 to 6.46632e-009
Heightened Def Con from 6.46632e-009 to 6.46633e-009
Heightened Def Con from 6.46635e-009 to 6.46635e-009
Heightened Def Con from 6.46639e-009 to 6.46639e-009
Heightened Def Con from 6.46639e-009 +to 6.46646e-009
Heightened Def Con from 6.46646e-009 to 6.46646e-009
Heightened Def Con from 6.46646e-009 to 6.46647e-009
Heightened Def Con from 6.46647e-009 to 6.46654e-009
Heightened Def Con from 6.46654e-009 to 6.4666e-009
Heightened Def Con from 6.4666e-009 to 6.46661e-009
Heightened Def Con from 6.46672e-009 to 6.46672e-009
Heightened Def Con from 6.46672e-009 to 6.46672e-009
Heightened Def Con from 6.46672e-009 to 6.46673e-009
Heightened Def Con from 6.46673e-009 to 6.46679e-009
Heightened Def Con from 6.46679e-009 to 6.46679e-009
Heightened Def Con from 6.46679e-009 to 6.46681e-009
Heightened Def Con from 6.46683e-009 to 6.59186e-009
Heightened Def Con from 6.59192e-009 +to 6.59199e-009
Heightened Def Con from 6.59199e-009 to 6.59205e-009
Heightened Def Con from 6.59205e-009 +to 6.59207e-009
Heightened Def Con from 6.59208e-009 to 6.59209e-009
Heightened Def Con from 6.59209e-009 to 6.59216e-009
Heightened Def Con from 6.59217e-009 to 6.59223e-009
Heightened Def Con from 6.59226e-009 to 6.59226e-009
Heightened Def Con from 6.59226e-009 to 6.59227e-009
Heightened Def Con from 6.59227e-009 +to 6.59233e-009
Heightened Def Con from 6.59237e-009 +to 6.59241e-009
Heightened Def Con from 6.59242e-009 to 6.59242e-009
Heightened Def Con from 6.59243e-009 to 6.59249e-009
Heightened Def Con from 6.59253e-009 to 6.59278e-009
Heightened Def Con from 6.5928e-009 to 6.5928e-009
Heightened Def Con from 6.5928e-009 to 6.59289e-009
Heightened Def Con from 6.59296e-009 to 6.59297e-009
Heightened Def Con from 6.59327e-009 to 6.59328e-009
Heightened Def Con from 6.59329e-009 to 6.5933e-009
Heightened Def Con from 6.5933e-009 +to 6.5933e-009
Heightened Def Con from 6.5933e-009 +to 6.59336e-009
Heightened Def Con from 6.59345e-009 to 6.5937e-009
Heightened Def Con from 6.59371e-009 to 6.59373e-009
Heightened Def Con from 6.59373e-009 to 6.59376e-009
Heightened Def Con from 6.59377e-009 to 6.5938e-009
Heightened Def Con from 6.5938e-009 to 6.59381e-009
Heightened Def Con from 6.59381e-009 to 6.59408e-009
Heightened Def Con from 6.59414e-009 to 6.59613e-009
Heightened Def Con from 6.5964e-009 +to 6.5964e-009
Heightened Def Con from 6.5964e-009 to 6.59646e-009
Heightened Def Con from 6.59646e-009 to 6.59652e-009
Heightened Def Con from 6.59652e-009 to 6.59652e-009
Heightened Def Con from 6.59652e-009 to 6.59652e-009
Heightened Def Con from 6.59653e-009 to 6.59653e-009
Heightened Def Con from 6.59653e-009 to 6.59653e-009
Heightened Def Con from 6.59653e-009 to 6.59653e-009
Heightened Def Con from 6.59653e-009 to 6.59654e-009
Heightened Def Con from 6.59655e-009 to 6.59655e-009
Heightened Def Con from 6.59655e-009 to 6.59664e-009
Heightened Def Con from 6.59673e-009 to 6.59673e-009
Heightened Def Con from 6.59687e-009 to 6.59688e-009
Heightened Def Con from 6.59693e-009 to 6.597e-009
Heightened Def Con from 6.59701e-009 +to 6.59702e-009
Heightened Def Con from 6.59702e-009 to 6.59702e-009
Heightened Def Con from 6.59702e-009 to 6.59709e-009
Heightened Def Con from 6.59709e-009 +to 6.59713e-009
Heightened Def Con from 6.59713e-009 to 6.59911e-009
Heightened Def Con from 6.59912e-009 +to 6.59912e-009
Heightened Def Con from 6.59919e-009 to 6.59928e-009
Heightened Def Con from 6.59931e-009 to 6.59959e-009
Heightened Def Con from 6.5996e-009 to 6.61525e-009
Heightened Def Con from 6.61531e-009 to 6.61532e-009
Heightened Def Con from 6.61532e-009 to 6.61532e-009
Heightened Def Con from 6.61532e-009 to 6.6156e-009
Heightened Def Con from 6.61566e-009 to 6.6157e-009
Heightened Def Con from 6.61571e-009 to 6.61571e-009
Heightened Def Con from 6.61571e-009 to 6.61571e-009
Heightened Def Con from 6.61571e-009 to 6.61574e-009
Heightened Def Con from 6.61574e-009 +to 6.61581e-009
Heightened Def Con from 6.61581e-009 to 6.61608e-009
Heightened Def Con from 6.61608e-009 +to 6.61608e-009
Heightened Def Con from 6.61608e-009 to 6.61609e-009
Heightened Def Con from 6.61609e-009 to 6.6161e-009
Heightened Def Con from 6.61611e-009 to 6.61611e-009
Heightened Def Con from 6.61611e-009 to 6.61611e-009
Heightened Def Con from 6.61611e-009 to 6.61611e-009
Heightened Def Con from 6.61611e-009 to 6.61615e-009
Heightened Def Con from 6.61615e-009 to 6.61615e-009
Heightened Def Con from 6.61615e-009 to 6.61618e-009
Heightened Def Con from 6.61618e-009 +to 6.61621e-009
Heightened Def Con from 6.61633e-009 to 6.61633e-009
Heightened Def Con from 6.61633e-009 to 6.61633e-009
Heightened Def Con from 6.61633e-009 +to 6.61633e-009
Heightened Def Con from 6.61633e-009 to 6.61636e-009
Heightened Def Con from 6.61636e-009 to 6.61637e-009
Heightened Def Con from 6.61647e-009 to 6.61647e-009
Heightened Def Con from 6.61663e-009 ++to 6.61883e-009
Heightened Def Con from 6.61887e-009 to 6.61889e-009
Heightened Def Con from 6.61895e-009 +to 6.61896e-009
Heightened Def Con from 6.61896e-009 to 6.61923e-009
Heightened Def Con from 6.61966e-009 to 6.61975e-009
Heightened Def Con from 6.61976e-009 to 6.61982e-009
Heightened Def Con from 6.61982e-009 to 6.62007e-009
Heightened Def Con from 6.62008e-009 to 6.62008e-009
Heightened Def Con from 6.62009e-009 to 6.62034e-009
Heightened Def Con from 6.62071e-009 +to 6.62081e-009
Heightened Def Con from 6.62091e-009 to 6.62095e-009
Heightened Def Con from 6.62095e-009 +to 6.62098e-009
Heightened Def Con from 6.62115e-009 +to 6.62116e-009
Heightened Def Con from 6.62116e-009 to 6.62122e-009
Heightened Def Con from 6.62123e-009 to 6.62147e-009
Heightened Def Con from 6.62147e-009 to 6.62147e-009
Heightened Def Con from 6.62147e-009 to 6.62148e-009
Heightened Def Con from 6.62148e-009 to 6.62148e-009
Heightened Def Con from 6.62148e-009 +to 6.62149e-009
Heightened Def Con from 6.62173e-009 to 6.62369e-009
Heightened Def Con from 6.62369e-009 to 6.62375e-009
Heightened Def Con from 6.62375e-009 to 6.62402e-009
Heightened Def Con from 6.62402e-009 to 6.62402e-009
Heightened Def Con from 6.62402e-009 +to 6.62414e-009
Heightened Def Con from 6.62423e-009 +to 6.6243e-009
Heightened Def Con from 6.62433e-009 to 6.62461e-009
Heightened Def Con from 6.62467e-009 to 6.62467e-009
Heightened Def Con from 6.62467e-009 to 6.62471e-009
Heightened Def Con from 6.62471e-009 to 6.62471e-009
Heightened Def Con from 6.62471e-009 to 6.62471e-009
Heightened Def Con from 6.62471e-009 to 6.62471e-009
Heightened Def Con from 6.62471e-009 to 6.62471e-009
Heightened Def Con from 6.62471e-009 +to 6.62472e-009
Heightened Def Con from 6.62472e-009 to 6.62472e-009
Heightened Def Con from 6.62472e-009 to 6.62472e-009
Heightened Def Con from 6.62472e-009 ++to 6.62671e-009
Heightened Def Con from 6.62679e-009 to 6.62688e-009
Heightened Def Con from 6.62688e-009 to 6.6269e-009
Heightened Def Con from 6.62743e-009 to 6.62749e-009
Heightened Def Con from 6.62756e-009 to 6.62762e-009
Heightened Def Con from 6.62766e-009 to 7.62767e-009
Heightened Def Con from 7.6278e-009 to 7.62781e-009
Heightened Def Con from 7.62789e-009 to 7.6279e-009
Heightened Def Con from 7.62791e-009 +to 7.62792e-009
Heightened Def Con from 7.62792e-009 ++to 8.62865e-009
Heightened Def Con from 8.62878e-009 to 8.62881e-009
Heightened Def Con from 8.62881e-009 to 8.62908e-009
Heightened Def Con from 8.62918e-009 to 8.62921e-009
Heightened Def Con from 8.62921e-009 to 8.62923e-009
Heightened Def Con from 8.62932e-009 to 8.62935e-009
Heightened Def Con from 8.62936e-009 to 8.62936e-009
Heightened Def Con from 8.62936e-009 to 8.62942e-009
Heightened Def Con from 8.6297e-009 to 8.62994e-009
Heightened Def Con from 8.62996e-009 to 8.63002e-009
Heightened Def Con from 8.63005e-009 to 8.63011e-009
Heightened Def Con from 8.63011e-009 to 8.63011e-009
Heightened Def Con from 8.63018e-009 to 8.63019e-009
Heightened Def Con from 8.63019e-009 to 8.6302e-009
Heightened Def Con from 8.6302e-009 to 8.63021e-009
Heightened Def Con from 8.63021e-009 to 8.63027e-009
Heightened Def Con from 8.63027e-009 to 8.6303e-009
Heightened Def Con from 8.6303e-009 to 8.63033e-009
Heightened Def Con from 8.63033e-009 to 8.63033e-009
Heightened Def Con from 8.63033e-009 to 8.63061e-009
Heightened Def Con from 8.63067e-009 +to 8.63092e-009
Heightened Def Con from 8.63098e-009 to 8.63104e-009
Heightened Def Con from 8.63111e-009 to 8.63111e-009
Heightened Def Con from 8.63111e-009 to 8.63114e-009
Heightened Def Con from 8.63115e-009 to 8.63115e-009
Heightened Def Con from 8.63115e-009 to 8.63119e-009
Heightened Def Con from 8.6312e-009 +to 8.63123e-009
Heightened Def Con from 8.63123e-009 to 8.63123e-009
Heightened Def Con from 8.63123e-009 to 8.63127e-009
Heightened Def Con from 8.63127e-009 to 8.63127e-009
Heightened Def Con from 8.63128e-009 to 8.63134e-009
Heightened Def Con from 8.63134e-009 to 8.63135e-009
Heightened Def Con from 8.63135e-009 to 8.63135e-009
Heightened Def Con from 8.63135e-009 to 8.63138e-009
Heightened Def Con from 8.63138e-009 to 8.63142e-009
Heightened Def Con from 8.63142e-009 +to 8.63151e-009
Heightened Def Con from 8.63151e-009 to 8.63152e-009
Heightened Def Con from 8.63159e-009 +to 8.63159e-009
Heightened Def Con from 8.63159e-009 to 8.63159e-009
Heightened Def Con from 8.63159e-009 to 8.63161e-009
Heightened Def Con from 8.63161e-009 to 8.63164e-009
Heightened Def Con from 8.63164e-009 ++to 8.63189e-009
Heightened Def Con from 8.6319e-009 to 8.63197e-009
Heightened Def Con from 8.63202e-009 to 8.63205e-009
Heightened Def Con from 8.63205e-009 to 8.63208e-009
Heightened Def Con from 8.63208e-009 +to 8.63214e-009
Heightened Def Con from 8.63214e-009 to 8.63224e-009
Heightened Def Con from 8.63224e-009 to 8.6324e-009
Heightened Def Con from 8.6324e-009 to 8.63241e-009
Heightened Def Con from 8.63246e-009 to 8.6325e-009
Heightened Def Con from 8.6325e-009 +to 8.63256e-009
Heightened Def Con from 8.63256e-009 to 8.63266e-009
Heightened Def Con from 8.63266e-009 to 8.6327e-009
Heightened Def Con from 8.6327e-009 to 8.63279e-009
Heightened Def Con from 8.63279e-009 to 8.63281e-009
Heightened Def Con from 8.63281e-009 +to 8.63281e-009
Heightened Def Con from 8.63282e-009 to 8.63283e-009
Heightened Def Con from 8.63298e-009 to 8.63301e-009
Heightened Def Con from 8.63302e-009 to 8.63302e-009
Heightened Def Con from 8.63302e-009 to 8.63305e-009
Heightened Def Con from 8.63305e-009 +to 8.63305e-009
Heightened Def Con from 8.63305e-009 +to 8.63306e-009
Heightened Def Con from 8.63306e-009 to 8.6331e-009
Heightened Def Con from 8.63314e-009 to 8.63315e-009
Heightened Def Con from 8.63326e-009 to 8.63329e-009
Heightened Def Con from 8.63329e-009 +to 8.63357e-009
Heightened Def Con from 8.63359e-009 to 8.6336e-009
Heightened Def Con from 8.6336e-009 to 8.63361e-009
Heightened Def Con from 8.63363e-009 to 8.63363e-009
Heightened Def Con from 8.63364e-009 +to 8.63389e-009
Heightened Def Con from 8.63395e-009 to 8.63404e-009
Heightened Def Con from 8.63409e-009 to 8.63415e-009
Heightened Def Con from 8.63417e-009 to 8.63417e-009
Heightened Def Con from 8.63417e-009 +to 8.6342e-009
Heightened Def Con from 8.63421e-009 to 8.63421e-009
Heightened Def Con from 8.63421e-009 to 8.63427e-009
Heightened Def Con from 8.63427e-009 +to 8.63431e-009
Heightened Def Con from 8.63433e-009 +to 8.63433e-009
Heightened Def Con from 8.63433e-009 to 8.63437e-009
Heightened Def Con from 8.63444e-009 to 8.63444e-009
Heightened Def Con from 8.63468e-009 to 8.63472e-009
Heightened Def Con from 8.63472e-009 to 8.63476e-009
Heightened Def Con from 8.63487e-009 to 8.63494e-009
Heightened Def Con from 8.63494e-009 to 8.63494e-009
Heightened Def Con from 8.63494e-009 to 8.63494e-009
Heightened Def Con from 8.63494e-009 to 8.63498e-009
Heightened Def Con from 8.63501e-009 to 8.63502e-009
Heightened Def Con from 8.63512e-009 +to 8.63521e-009
Heightened Def Con from 8.63522e-009 to 8.6372e-009
Heightened Def Con from 8.63726e-009 to 8.63727e-009
Heightened Def Con from 8.63727e-009 to 8.63733e-009
Heightened Def Con from 8.63737e-009 +to 8.6374e-009
Heightened Def Con from 8.6374e-009 to 8.63741e-009
Heightened Def Con from 8.63741e-009 to 8.63741e-009
Heightened Def Con from 8.63741e-009 to 8.63741e-009
Heightened Def Con from 8.63741e-009 to 8.63745e-009
Heightened Def Con from 8.63745e-009 to 8.63746e-009
Heightened Def Con from 8.63746e-009 to 8.63749e-009
Heightened Def Con from 8.6375e-009 to 8.6375e-009
Heightened Def Con from 8.6375e-009 to 8.63754e-009
Heightened Def Con from 8.63767e-009 +to 8.63774e-009
Heightened Def Con from 8.63778e-009 to 8.63778e-009
Heightened Def Con from 8.63794e-009 to 8.63794e-009
Heightened Def Con from 8.63795e-009 to 8.63801e-009
Heightened Def Con from 8.63801e-009 +to 8.63803e-009
Heightened Def Con from 8.63803e-009 to 8.63809e-009
Heightened Def Con from 8.63809e-009 to 8.63809e-009
Heightened Def Con from 8.63817e-009 +to 8.63824e-009
Heightened Def Con from 8.63825e-009 to 8.63825e-009
Heightened Def Con from 8.63844e-009 +to 8.63844e-009
Heightened Def Con from 8.63844e-009 to 8.63847e-009
Heightened Def Con from 8.63847e-009 to 8.6385e-009
Heightened Def Con from 8.63851e-009 to 8.63852e-009
Heightened Def Con from 8.63871e-009 to 8.63871e-009
Heightened Def Con from 8.63871e-009 to 8.63875e-009
Heightened Def Con from 8.63875e-009 to 8.63875e-009
Heightened Def Con from 8.63875e-009 to 8.63875e-009
Heightened Def Con from 8.63875e-009 +to 8.63881e-009
Heightened Def Con from 8.63882e-009 to 8.63883e-009
Heightened Def Con from 8.63883e-009 to 8.63886e-009
Heightened Def Con from 8.63886e-009 +to 8.6389e-009
Heightened Def Con from 8.6389e-009 to 8.63896e-009
Heightened Def Con from 8.63896e-009 to 8.639e-009
Heightened Def Con from 8.639e-009 to 8.639e-009
Heightened Def Con from 8.639e-009 to 8.63903e-009
Heightened Def Con from 8.63903e-009 to 8.63907e-009
Heightened Def Con from 8.63907e-009 +to 8.63907e-009
Heightened Def Con from 8.63907e-009 to 8.63911e-009
Heightened Def Con from 8.63911e-009 to 8.63911e-009
Heightened Def Con from 8.63911e-009 to 8.63912e-009
Heightened Def Con from 8.63912e-009 to 8.63913e-009
Heightened Def Con from 8.63922e-009 to 8.63925e-009
Heightened Def Con from 8.63925e-009 to 8.63929e-009
Heightened Def Con from 8.63929e-009 to 8.63932e-009
Heightened Def Con from 8.63933e-009 to 8.63933e-009
Heightened Def Con from 8.63933e-009 to 8.63933e-009
Heightened Def Con from 8.63933e-009 +to 8.63958e-009
Heightened Def Con from 8.63958e-009 to 8.63983e-009
Heightened Def Con from 8.6399e-009 to 8.63993e-009
Heightened Def Con from 8.63993e-009 to 8.64189e-009
Heightened Def Con from 8.64196e-009 to 8.64198e-009
Heightened Def Con from 8.64216e-009 to 8.64219e-009
Heightened Def Con from 8.6422e-009 to 8.6422e-009
Heightened Def Con from 8.64221e-009 to 8.64221e-009
Heightened Def Con from 8.64221e-009 +to 8.64228e-009
Heightened Def Con from 8.64229e-009 to 8.64229e-009
Heightened Def Con from 8.64229e-009 +to 8.64242e-009
Heightened Def Con from 8.64242e-009 to 8.64242e-009
Heightened Def Con from 8.64242e-009 to 8.64269e-009
Heightened Def Con from 8.64275e-009 to 8.64278e-009
Heightened Def Con from 8.64278e-009 to 8.64278e-009
Heightened Def Con from 8.64278e-009 to 8.64278e-009
Heightened Def Con from 8.64278e-009 to 8.64282e-009
Heightened Def Con from 8.64283e-009 to 8.64283e-009
Heightened Def Con from 8.64284e-009 to 8.64308e-009
Heightened Def Con from 8.64308e-009 to 8.64308e-009
Heightened Def Con from 8.64323e-009 to 8.64522e-009
Heightened Def Con from 8.64522e-009 to 8.64523e-009
Heightened Def Con from 8.64536e-009 to 8.64543e-009
Heightened Def Con from 8.64544e-009 to 8.64545e-009
Heightened Def Con from 8.64551e-009 to 8.64578e-009
Heightened Def Con from 8.64584e-009 to 8.64584e-009
Heightened Def Con from 8.64584e-009 to 8.64591e-009
Heightened Def Con from 8.64591e-009 to 8.64591e-009
Heightened Def Con from 8.64592e-009 to 8.64595e-009
Heightened Def Con from 8.64595e-009 to 8.64596e-009
Heightened Def Con from 8.64599e-009 to 8.64602e-009
Heightened Def Con from 8.64602e-009 to 8.64611e-009
Heightened Def Con from 8.64611e-009 to 8.64615e-009
Heightened Def Con from 8.64615e-009 to 8.64616e-009
Heightened Def Con from 8.64624e-009 to 8.64625e-009
Heightened Def Con from 8.64625e-009 to 8.64626e-009
Heightened Def Con from 8.64632e-009 to 8.64633e-009
Heightened Def Con from 8.64633e-009 to 8.6466e-009
Heightened Def Con from 8.64667e-009 to 8.64673e-009
Heightened Def Con from 8.64673e-009 to 8.64674e-009
Heightened Def Con from 8.64674e-009 to 8.64675e-009
Heightened Def Con from 8.64676e-009 to 8.6468e-009
Heightened Def Con from 8.6468e-009 to 8.64681e-009
Heightened Def Con from 8.64689e-009 to 8.64695e-009
Heightened Def Con from 8.64697e-009 to 9.64697e-009
Heightened Def Con from 9.64698e-009 to 9.64698e-009
Heightened Def Con from 9.64705e-009 to 9.64709e-009
Heightened Def Con from 9.64709e-009 to 9.6471e-009
Heightened Def Con from 9.6471e-009 to 9.6471e-009
Heightened Def Con from 9.64712e-009 to 9.64716e-009
Heightened Def Con from 9.64717e-009 to 9.64717e-009
Heightened Def Con from 9.64717e-009 to 9.64717e-009
Heightened Def Con from 9.64717e-009 +to 9.64721e-009
Heightened Def Con from 9.64721e-009 to 9.64721e-009
Heightened Def Con from 9.64741e-009 to 9.64745e-009
Heightened Def Con from 9.64745e-009 +to 9.64745e-009
Heightened Def Con from 9.64749e-009 to 9.6475e-009
Heightened Def Con from 9.6475e-009 +to 9.6475e-009
Heightened Def Con from 9.6475e-009 to 9.64756e-009
Heightened Def Con from 9.64761e-009 to 9.64767e-009
Heightened Def Con from 9.64776e-009 to 9.64779e-009
Heightened Def Con from 9.64779e-009 to 9.64782e-009
Heightened Def Con from 9.64782e-009 to 9.64783e-009
Heightened Def Con from 9.64783e-009 +to 9.64784e-009
Heightened Def Con from 9.64789e-009 to 9.64814e-009
Heightened Def Con from 9.64823e-009 to 9.64823e-009
Heightened Def Con from 9.64823e-009 +to 9.64838e-009
Heightened Def Con from 9.64838e-009 to 9.64839e-009
Heightened Def Con from 9.64839e-009 to 9.64839e-009
Heightened Def Con from 9.64839e-009 to 9.64845e-009
Heightened Def Con from 9.64845e-009 to 9.64848e-009
Heightened Def Con from 9.64848e-009 to 9.64851e-009
Heightened Def Con from 9.64859e-009 to 9.64859e-009
Heightened Def Con from 9.64859e-009 to 9.64859e-009
Heightened Def Con from 9.64859e-009 to 9.64859e-009
Heightened Def Con from 9.64859e-009 to 9.64887e-009
Heightened Def Con from 9.64893e-009 to 9.64893e-009
Heightened Def Con from 9.64899e-009 to 9.64902e-009
Heightened Def Con from 9.64902e-009 to 9.64906e-009
Heightened Def Con from 9.64906e-009 to 9.64906e-009
Heightened Def Con from 9.6491e-009 to 9.64911e-009
Heightened Def Con from 9.64914e-009 to 9.6492e-009
Heightened Def Con from 9.6492e-009 to 9.64923e-009
Heightened Def Con from 9.64924e-009 +to 9.6493e-009
Heightened Def Con from 9.64933e-009 to 9.64934e-009
Heightened Def Con from 9.64949e-009 to 9.64949e-009
Heightened Def Con from 9.64949e-009 to 9.64949e-009
Heightened Def Con from 9.64949e-009 to 9.64949e-009
Heightened Def Con from 9.64949e-009 +to 9.64961e-009
Heightened Def Con from 9.64961e-009 to 9.64968e-009
Heightened Def Con from 9.64968e-009 to 9.64971e-009
Heightened Def Con from 9.64971e-009 to 9.64978e-009
Heightened Def Con from 9.64978e-009 to 9.64979e-009
Heightened Def Con from 9.64997e-009 +to 9.65e-009
Heightened Def Con from 9.65e-009 +to 9.65025e-009
Heightened Def Con from 9.65032e-009 to 9.65035e-009
Heightened Def Con from 9.65036e-009 to 9.65042e-009
[...]
Heightened Def Con from 1.28489e-007 to 1.28489e-007
Heightened Def Con from 1.28489e-007 to 1.28489e-007
Heightened Def Con from 1.28489e-007 to 1.28489e-007
Heightened Def Con from 1.28489e-007 to 1.28489e-007
Heightened Def Con from 1.2849e-007 to 1.2849e-007
Heightened Def Con from 1.2849e-007 to 1.2849e-007
Heightened Def Con from 1.2849e-007 to 1.2849e-007
Heightened Def Con from 1.2849e-007 to 1.2849e-007
Heightened Def Con from 1.2849e-007 to 1.2849e-007
Heightened Def Con from 1.2849e-007 to 1.2849e-007
Heightened Def Con from 1.2849e-007 +to 1.28506e-007
Heightened Def Con from 1.28506e-007 to 1.28506e-007
Heightened Def Con from 1.28506e-007 +to 1.28506e-007
Heightened Def Con from 1.28506e-007 to 1.28506e-007
Heightened Def Con from 1.28506e-007 +to 1.28522e-007
Heightened Def Con from 1.28522e-007 +to 1.28522e-007
Heightened Def Con from 1.28522e-007 to 1.28522e-007
Heightened Def Con from 1.28522e-007 +to 1.28522e-007
Heightened Def Con from 1.28522e-007 to 1.28522e-007
Heightened Def Con from 1.28522e-007 to 1.28522e-007
Heightened Def Con from 1.28522e-007 to 1.28522e-007
Heightened Def Con from 1.28522e-007 to 1.28522e-007
Heightened Def Con from 1.28522e-007 to 1.28524e-007
Heightened Def Con from 1.28524e-007 to 1.28524e-007
Heightened Def Con from 1.28524e-007 +to 1.28524e-007
Heightened Def Con from 1.28524e-007 to 1.28524e-007
Heightened Def Con from 1.28524e-007 to 1.28524e-007
Heightened Def Con from 1.28524e-007 to 1.28524e-007
Heightened Def Con from 1.28524e-007 to 1.28524e-007
Heightened Def Con from 1.28524e-007 to 1.28524e-007
Heightened Def Con from 1.28524e-007 +to 1.28524e-007
Heightened Def Con from 1.28524e-007 to 1.28524e-007
Heightened Def Con from 1.28524e-007 to 1.28524e-007
Heightened Def Con from 1.28524e-007 to 1.28524e-007
Heightened Def Con from 1.28524e-007 to 1.28525e-007
Heightened Def Con from 1.28525e-007 to 1.28525e-007
Heightened Def Con from 1.28525e-007 +to 1.28525e-007
Heightened Def Con from 1.28525e-007 to 1.28525e-007
Heightened Def Con from 1.28525e-007 to 1.28525e-007
Heightened Def Con from 1.28525e-007 to 1.28525e-007
Heightened Def Con from 1.28525e-007 to 1.28525e-007
Heightened Def Con from 1.28525e-007 to 1.28525e-007
Heightened Def Con from 1.28525e-007 to 1.28525e-007
Heightened Def Con from 1.28525e-007 to 1.28525e-007
Heightened Def Con from 1.28525e-007 to 1.28525e-007
Heightened Def Con from 1.28525e-007 to 1.28525e-007
Heightened Def Con from 1.28525e-007 to 1.28525e-007
Heightened Def Con from 1.28525e-007 +to 1.28525e-007
Heightened Def Con from 1.28525e-007 to 1.28525e-007
Heightened Def Con from 1.28525e-007 to 1.28525e-007
Heightened Def Con from 1.28525e-007 to 1.29525e-007
Heightened Def Con from 1.29525e-007 to 1.29525e-007
Heightened Def Con from 1.29525e-007 to 1.29525e-007
Heightened Def Con from 1.29525e-007 +to 1.29525e-007
Heightened Def Con from 1.29525e-007 to 1.29525e-007
Heightened Def Con from 1.29525e-007 ++to 1.29526e-007
Heightened Def Con from 1.29526e-007 to 1.29526e-007
Heightened Def Con from 1.29526e-007 to 1.29526e-007
Heightened Def Con from 1.29526e-007 to 1.29526e-007
Heightened Def Con from 1.29526e-007 to 1.29526e-007
Heightened Def Con from 1.29526e-007 to 1.29526e-007
Heightened Def Con from 1.29526e-007 to 1.29526e-007
Heightened Def Con from 1.29526e-007 to 1.29526e-007
Heightened Def Con from 1.29527e-007 to 1.29527e-007
Heightened Def Con from 1.29527e-007 to 1.29527e-007
Heightened Def Con from 1.29527e-007 to 1.29527e-007
Heightened Def Con from 1.29527e-007 to 1.29527e-007
Heightened Def Con from 1.29527e-007 to 1.29527e-007
Heightened Def Con from 1.29527e-007 to 1.29527e-007
Heightened Def Con from 1.29527e-007 to 1.29527e-007
Heightened Def Con from 1.29527e-007 to 1.29527e-007
Heightened Def Con from 1.29527e-007 to 1.29527e-007
Heightened Def Con from 1.29527e-007 to 1.29528e-007
Heightened Def Con from 1.29528e-007 to 1.29528e-007
Heightened Def Con from 1.29528e-007 to 1.29528e-007
Heightened Def Con from 1.29528e-007 to 1.29528e-007
Heightened Def Con from 1.29528e-007 to 1.29528e-007
Heightened Def Con from 1.29528e-007 to 1.29528e-007
Heightened Def Con from 1.29528e-007 to 1.29528e-007
Heightened Def Con from 1.29528e-007 ++to 1.29528e-007
Heightened Def Con from 1.29528e-007 to 1.29528e-007
Heightened Def Con from 1.29528e-007 to 1.29528e-007
Heightened Def Con from 1.29528e-007 to 1.29528e-007
Heightened Def Con from 1.29528e-007 to 1.29528e-007
Heightened Def Con from 1.29528e-007 to 1.29528e-007
Heightened Def Con from 1.29528e-007 to 1.29528e-007
Heightened Def Con from 1.29528e-007 to 1.29528e-007
Heightened Def Con from 1.29528e-007 to 1.29528e-007
Heightened Def Con from 1.29528e-007 to 1.29528e-007
Heightened Def Con from 1.29528e-007 to 1.29528e-007
Heightened Def Con from 1.29528e-007 to 1.30528e-007
Heightened Def Con from 1.30528e-007 to 1.30528e-007
Heightened Def Con from 1.30528e-007 to 1.30528e-007
Heightened Def Con from 1.30528e-007 to 1.30528e-007
Heightened Def Con from 1.30528e-007 to 1.30653e-007
Heightened Def Con from 1.30653e-007 to 1.30653e-007
Heightened Def Con from 1.30653e-007 to 1.30653e-007
Heightened Def Con from 1.30653e-007 to 1.30653e-007
Heightened Def Con from 1.30653e-007 to 1.30653e-007
Heightened Def Con from 1.30653e-007 to 1.30653e-007
Heightened Def Con from 1.30653e-007 to 1.30653e-007
Heightened Def Con from 1.30653e-007 to 1.30653e-007
Heightened Def Con from 1.30653e-007 to 1.30653e-007
Heightened Def Con from 1.30653e-007 to 1.30653e-007
Heightened Def Con from 1.30653e-007 to 1.30653e-007
Heightened Def Con from 1.30653e-007 to 1.30653e-007
Heightened Def Con from 1.30653e-007 to 1.30653e-007
Heightened Def Con from 1.30653e-007 to 1.30654e-007
Heightened Def Con from 1.30654e-007 +to 1.30654e-007
Heightened Def Con from 1.30654e-007 +to 1.30654e-007
Heightened Def Con from 1.30654e-007 +to 1.30654e-007
Heightened Def Con from 1.30654e-007 to 1.30654e-007
Heightened Def Con from 1.30654e-007 to 1.30654e-007
Heightened Def Con from 1.30654e-007 to 1.30654e-007
Heightened Def Con from 1.30654e-007 to 1.30654e-007
Heightened Def Con from 1.30654e-007 to 1.30654e-007
Heightened Def Con from 1.30654e-007 to 1.30656e-007
Heightened Def Con from 1.30656e-007 to 1.30656e-007
Heightened Def Con from 1.30656e-007 to 1.30656e-007
Heightened Def Con from 1.30656e-007 to 1.30656e-007
Heightened Def Con from 1.30656e-007 to 1.30656e-007
Heightened Def Con from 1.30656e-007 to 1.30656e-007
Heightened Def Con from 1.30656e-007 to 1.30657e-007
Heightened Def Con from 1.30657e-007 to 1.30657e-007
Heightened Def Con from 1.30657e-007 to 1.30657e-007
Heightened Def Con from 1.30657e-007 to 1.30657e-007
Heightened Def Con from 1.30657e-007 to 1.30657e-007
Heightened Def Con from 1.30657e-007 to 1.30657e-007
Heightened Def Con from 1.30657e-007 to 1.30657e-007
Heightened Def Con from 1.30657e-007 to 1.30657e-007
Heightened Def Con from 1.30657e-007 to 1.30657e-007
Heightened Def Con from 1.30657e-007 to 1.30657e-007
Heightened Def Con from 1.30657e-007 to 1.30657e-007
Heightened Def Con from 1.30657e-007 to 1.30657e-007
Heightened Def Con from 1.30657e-007 to 1.30657e-007
Heightened Def Con from 1.30657e-007 to 1.30657e-007
Heightened Def Con from 1.30657e-007 to 1.30657e-007
Heightened Def Con from 1.30657e-007 to 1.30658e-007
Heightened Def Con from 1.30658e-007 ++to 1.30658e-007
Heightened Def Con from 1.30658e-007 to 1.30658e-007
Heightened Def Con from 1.30658e-007 to 1.30658e-007
Heightened Def Con from 1.30658e-007 to 1.30658e-007
Heightened Def Con from 1.30658e-007 to 1.30658e-007
Heightened Def Con from 1.30658e-007 to 1.30658e-007
Heightened Def Con from 1.30658e-007 to 1.30658e-007
Heightened Def Con from 1.30658e-007 to 1.30659e-007
Heightened Def Con from 1.30659e-007 +to 1.30659e-007
Heightened Def Con from 1.30659e-007 +to 1.30659e-007
Heightened Def Con from 1.30659e-007 +to 1.30659e-007
Heightened Def Con from 1.30659e-007 to 1.30659e-007
Heightened Def Con from 1.30659e-007 to 1.30659e-007
Heightened Def Con from 1.30659e-007 to 1.30659e-007
Heightened Def Con from 1.30659e-007 to 1.30659e-007
Heightened Def Con from 1.30659e-007 to 1.30784e-007
Heightened Def Con from 1.30784e-007 to 1.30784e-007
Heightened Def Con from 1.30784e-007 +to 1.30784e-007
Heightened Def Con from 1.30784e-007 to 1.30784e-007
Heightened Def Con from 1.30784e-007 to 1.30784e-007
Heightened Def Con from 1.30784e-007 to 1.30784e-007
Heightened Def Con from 1.30784e-007 to 1.30784e-007
Heightened Def Con from 1.30784e-007 to 1.30784e-007
Heightened Def Con from 1.30785e-007 to 1.30785e-007
Heightened Def Con from 1.30785e-007 to 1.30785e-007
Heightened Def Con from 1.30785e-007 +to 1.30785e-007
Heightened Def Con from 1.30785e-007 to 1.30785e-007
Heightened Def Con from 1.30785e-007 to 1.30785e-007
Heightened Def Con from 1.30785e-007 to 1.30785e-007
Heightened Def Con from 1.30785e-007 to 1.30785e-007
Heightened Def Con from 1.30785e-007 to 1.30785e-007
Heightened Def Con from 1.30785e-007 to 1.30785e-007
Heightened Def Con from 1.30785e-007 to 1.30785e-007
Heightened Def Con from 1.30785e-007 +to 1.30785e-007
Heightened Def Con from 1.30785e-007 to 1.30785e-007
Heightened Def Con from 1.30785e-007 to 1.30785e-007
Heightened Def Con from 1.30785e-007 to 1.30785e-007
Heightened Def Con from 1.30785e-007 +to 1.30785e-007
Heightened Def Con from 1.30785e-007 +to 1.30786e-007
Heightened Def Con from 1.30786e-007 +to 1.30786e-007
Heightened Def Con from 1.30786e-007 +to 1.30786e-007
Heightened Def Con from 1.30786e-007 to 1.30786e-007
Heightened Def Con from 1.30786e-007 to 1.30786e-007
Heightened Def Con from 1.30786e-007 to 1.30786e-007
Heightened Def Con from 1.30786e-007 to 1.30786e-007
Heightened Def Con from 1.30786e-007 to 1.30786e-007
Heightened Def Con from 1.30786e-007 to 1.30786e-007
Heightened Def Con from 1.30786e-007 ++to 1.30787e-007
Heightened Def Con from 1.30787e-007 to 1.30787e-007
Heightened Def Con from 1.30787e-007 +to 1.30787e-007
Heightened Def Con from 1.30787e-007 to 1.30787e-007
Heightened Def Con from 1.30787e-007 to 1.30787e-007
Heightened Def Con from 1.30787e-007 to 1.30788e-007
Heightened Def Con from 1.30788e-007 to 1.30803e-007
Heightened Def Con from 1.30803e-007 to 1.30803e-007
Heightened Def Con from 1.30803e-007 to 1.30803e-007
Heightened Def Con from 1.30803e-007 to 1.30803e-007
Heightened Def Con from 1.30803e-007 to 1.30803e-007
Heightened Def Con from 1.30803e-007 to 1.30803e-007
Heightened Def Con from 1.30803e-007 to 1.30803e-007
Heightened Def Con from 1.30803e-007 to 1.30803e-007
Heightened Def Con from 1.30803e-007 +to 1.30803e-007
Heightened Def Con from 1.30803e-007 +to 1.30803e-007
Heightened Def Con from 1.30803e-007 to 1.30803e-007
Heightened Def Con from 1.30803e-007 to 1.30803e-007
Heightened Def Con from 1.30803e-007 to 1.30804e-007
Heightened Def Con from 1.30804e-007 to 1.30804e-007
Heightened Def Con from 1.30804e-007 to 1.30804e-007
Heightened Def Con from 1.30804e-007 to 1.30804e-007
Heightened Def Con from 1.30804e-007 to 1.30804e-007
Heightened Def Con from 1.30804e-007 to 1.30804e-007
Heightened Def Con from 1.30804e-007 to 1.30804e-007
Heightened Def Con from 1.30804e-007 to 1.30804e-007
Heightened Def Con from 1.30804e-007 to 1.30804e-007
Heightened Def Con from 1.30804e-007 +to 1.3082e-007
Heightened Def Con from 1.3082e-007 to 1.3082e-007
Heightened Def Con from 1.3082e-007 to 1.3082e-007
Heightened Def Con from 1.30821e-007 to 1.30821e-007
Heightened Def Con from 1.30821e-007 to 1.30821e-007
Heightened Def Con from 1.30821e-007 to 1.30821e-007
Heightened Def Con from 1.30821e-007 to 1.30821e-007
Heightened Def Con from 1.30821e-007 to 1.30821e-007
Heightened Def Con from 1.30821e-007 to 1.30821e-007
Heightened Def Con from 1.30821e-007 to 1.30821e-007
Heightened Def Con from 1.30821e-007 to 1.30821e-007
Heightened Def Con from 1.30821e-007 to 1.30821e-007
Heightened Def Con from 1.30821e-007 to 1.30821e-007
Heightened Def Con from 1.30821e-007 to 1.30822e-007
Heightened Def Con from 1.30822e-007 +to 1.30822e-007
Heightened Def Con from 1.30822e-007 +to 1.30822e-007
Heightened Def Con from 1.30822e-007 to 1.30822e-007
Heightened Def Con from 1.30822e-007 to 1.30822e-007
Heightened Def Con from 1.30822e-007 to 1.30822e-007
Heightened Def Con from 1.30822e-007 to 1.30822e-007
Heightened Def Con from 1.30822e-007 to 1.30822e-007
Heightened Def Con from 1.30822e-007 to 1.30822e-007
Heightened Def Con from 1.30822e-007 to 1.30822e-007
Heightened Def Con from 1.30822e-007 to 1.30822e-007
Heightened Def Con from 1.30822e-007 to 1.30822e-007
Heightened Def Con from 1.30822e-007 to 1.30822e-007
Heightened Def Con from 1.30822e-007 to 1.30822e-007
Heightened Def Con from 1.30822e-007 to 1.30822e-007
Heightened Def Con from 1.30822e-007 to 1.30822e-007
Heightened Def Con from 1.30822e-007 to 1.30823e-007
Heightened Def Con from 1.30823e-007 to 1.30823e-007
Heightened Def Con from 1.30823e-007 +to 1.30823e-007
Heightened Def Con from 1.30823e-007 to 1.30823e-007
Heightened Def Con from 1.30823e-007 to 1.30823e-007
Heightened Def Con from 1.30823e-007 +to 1.30823e-007
Heightened Def Con from 1.30823e-007 to 1.30823e-007
Heightened Def Con from 1.30823e-007 to 1.30823e-007
Heightened Def Con from 1.30823e-007 to 1.30824e-007
Heightened Def Con from 1.30824e-007 to 1.30824e-007
Heightened Def Con from 1.30824e-007 to 1.30824e-007
Heightened Def Con from 1.30824e-007 to 1.30824e-007
Heightened Def Con from 1.30824e-007 to 1.30824e-007
Heightened Def Con from 1.30824e-007 to 1.30824e-007
Heightened Def Con from 1.30824e-007 to 1.30824e-007
Heightened Def Con from 1.30824e-007 to 1.30824e-007
Heightened Def Con from 1.30824e-007 +to 1.30824e-007
Heightened Def Con from 1.30824e-007 to 1.30824e-007
Heightened Def Con from 1.30824e-007 to 1.30824e-007
Heightened Def Con from 1.30824e-007 ++to 1.30824e-007
Heightened Def Con from 1.30824e-007 to 1.30824e-007
Heightened Def Con from 1.30824e-007 to 1.30824e-007
Heightened Def Con from 1.30824e-007 to 1.30825e-007
Heightened Def Con from 1.30825e-007 to 1.30825e-007
Heightened Def Con from 1.30825e-007 to 1.30825e-007
Heightened Def Con from 1.30825e-007 to 1.30825e-007
Heightened Def Con from 1.30825e-007 to 1.30825e-007
Heightened Def Con from 1.30825e-007 to 1.30825e-007
Heightened Def Con from 1.30825e-007 to 1.30825e-007
Heightened Def Con from 1.30825e-007 ++to 1.30825e-007
Heightened Def Con from 1.30825e-007 to 1.30825e-007
Heightened Def Con from 1.30825e-007 to 1.30825e-007
Heightened Def Con from 1.30825e-007 to 1.30825e-007
Heightened Def Con from 1.30825e-007 to 1.30825e-007
Heightened Def Con from 1.30825e-007 to 1.30825e-007
Heightened Def Con from 1.30825e-007 to 1.30825e-007
Heightened Def Con from 1.30825e-007 to 1.30825e-007
Heightened Def Con from 1.30825e-007 to 1.30826e-007
Heightened Def Con from 1.30826e-007 to 1.30826e-007
Heightened Def Con from 1.30826e-007 +to 1.30826e-007
Heightened Def Con from 1.30826e-007 to 1.30826e-007
Heightened Def Con from 1.30826e-007 to 1.30826e-007
Heightened Def Con from 1.30826e-007 to 1.30826e-007
Heightened Def Con from 1.30826e-007 to 1.30826e-007
Heightened Def Con from 1.30826e-007 ++to 1.30827e-007
Heightened Def Con from 1.30827e-007 +to 1.30827e-007
Heightened Def Con from 1.30827e-007 to 1.30827e-007
Heightened Def Con from 1.30827e-007 +to 1.30827e-007
Heightened Def Con from 1.30827e-007 to 1.30827e-007
Heightened Def Con from 1.30827e-007 to 1.30827e-007
Heightened Def Con from 1.30827e-007 to 1.30827e-007
Heightened Def Con from 1.30827e-007 +to 1.30827e-007
Heightened Def Con from 1.30827e-007 to 1.30827e-007
Heightened Def Con from 1.30827e-007 to 1.30827e-007
Heightened Def Con from 1.30827e-007 to 1.30827e-007
Heightened Def Con from 1.30827e-007 to 1.30827e-007
Heightened Def Con from 1.30827e-007 to 1.30827e-007
Heightened Def Con from 1.30827e-007 to 1.30827e-007
Heightened Def Con from 1.30828e-007 to 1.30828e-007
Heightened Def Con from 1.30828e-007 to 1.30828e-007
Heightened Def Con from 1.30828e-007 +to 1.30828e-007
Heightened Def Con from 1.30828e-007 to 1.30828e-007
Heightened Def Con from 1.30828e-007 to 1.30828e-007
Heightened Def Con from 1.30828e-007 to 1.30828e-007
Heightened Def Con from 1.30828e-007 to 1.30828e-007
Heightened Def Con from 1.30828e-007 +to 1.30828e-007
Heightened Def Con from 1.30828e-007 to 1.30828e-007
Heightened Def Con from 1.30828e-007 to 1.30828e-007
Heightened Def Con from 1.30828e-007 to 1.30828e-007
Heightened Def Con from 1.30828e-007 to 1.30828e-007
Heightened Def Con from 1.30828e-007 to 1.30828e-007
Heightened Def Con from 1.30828e-007 to 1.30828e-007
Heightened Def Con from 1.30828e-007 to 1.30828e-007
Heightened Def Con from 1.30828e-007 to 1.30828e-007
Heightened Def Con from 1.30828e-007 to 1.30828e-007
Heightened Def Con from 1.30828e-007 to 1.30828e-007
Heightened Def Con from 1.30828e-007 to 1.30828e-007
Heightened Def Con from 1.30828e-007 to 1.30828e-007
Heightened Def Con from 1.30828e-007 to 1.30828e-007
Heightened Def Con from 1.30828e-007 to 1.30828e-007
Heightened Def Con from 1.30828e-007 to 1.30828e-007
Heightened Def Con from 1.30828e-007 to 1.30828e-007
Heightened Def Con from 1.30828e-007 to 1.30828e-007
Heightened Def Con from 1.30828e-007 to 1.30828e-007
Heightened Def Con from 1.30828e-007 to 1.30828e-007
Heightened Def Con from 1.30829e-007 to 1.30829e-007
Heightened Def Con from 1.30829e-007 to 1.30829e-007
Heightened Def Con from 1.30829e-007 ++to 1.30829e-007
Heightened Def Con from 1.30829e-007 to 1.30829e-007
Heightened Def Con from 1.3083e-007 +to 1.3083e-007
Heightened Def Con from 1.3083e-007 to 1.3083e-007
Heightened Def Con from 1.3083e-007 to 1.3083e-007
Heightened Def Con from 1.3083e-007 to 1.3083e-007
Heightened Def Con from 1.3083e-007 to 1.3083e-007
Heightened Def Con from 1.3083e-007 to 1.30832e-007
Heightened Def Con from 1.30832e-007 +to 1.30832e-007
Heightened Def Con from 1.30832e-007 +to 1.30832e-007
Heightened Def Con from 1.30832e-007 to 1.30832e-007
Heightened Def Con from 1.30832e-007 to 1.30832e-007
Heightened Def Con from 1.30832e-007 to 1.30832e-007
Heightened Def Con from 1.30832e-007 to 1.30832e-007
Heightened Def Con from 1.30832e-007 to 1.30832e-007
Heightened Def Con from 1.30832e-007 to 1.30832e-007
Heightened Def Con from 1.30832e-007 to 1.30832e-007
Heightened Def Con from 1.30832e-007 ++to 1.30833e-007
Heightened Def Con from 1.30833e-007 to 1.30833e-007
Heightened Def Con from 1.30833e-007 to 1.30833e-007
Heightened Def Con from 1.30833e-007 to 1.30833e-007
Heightened Def Con from 1.30833e-007 to 1.30833e-007
Heightened Def Con from 1.30833e-007 to 1.30833e-007
Heightened Def Con from 1.30833e-007 to 1.30833e-007
Heightened Def Con from 1.30833e-007 to 1.30833e-007
Heightened Def Con from 1.30833e-007 to 1.30833e-007
Heightened Def Con from 1.30833e-007 to 1.30833e-007
Heightened Def Con from 1.30833e-007 to 1.30833e-007
Heightened Def Con from 1.30833e-007 ++to 1.30833e-007
Heightened Def Con from 1.30833e-007 +to 1.30833e-007
Heightened Def Con from 1.30833e-007 to 1.30833e-007
Heightened Def Con from 1.30833e-007 to 1.30833e-007
Heightened Def Con from 1.30834e-007 +to 1.30834e-007
Heightened Def Con from 1.30834e-007 to 1.30834e-007
Heightened Def Con from 1.30834e-007 to 1.30834e-007
Heightened Def Con from 1.30834e-007 to 1.30834e-007
Heightened Def Con from 1.30834e-007 to 1.30834e-007
Heightened Def Con from 1.30834e-007 +to 1.30834e-007
Heightened Def Con from 1.30834e-007 to 1.30834e-007
Heightened Def Con from 1.30834e-007 to 1.30834e-007
Heightened Def Con from 1.30834e-007 to 1.30834e-007
Heightened Def Con from 1.30834e-007 to 1.30834e-007

Date: Tue May 16 22:05:53 2023
Total elapsed time: 19.430 seconds.

tnom = 27
temp = 27
method = modified trap
totiter = 3576110
traniter = 3573377
tranpoints = 402412
accept = 155552
rejected = 266514
matrix size = 36
fillins = 42
solver = Normal
Matrix Compiler1: 3.82 KB object code size  1.1/0.5/[0.4]
Matrix Compiler2: off  [0.5]/0.6/0.6

