Circuit: * C:\users\leonardo\Desktop\FSAE\inverter-simulation\main-attempt\inverter-spice-nmos.asc

Limiting rise time of source v2 to 6.25e-006
Limiting fall time of source v2 to 6.25e-006
WARNING: Node N015 is floating.

Instance "m1": Length shorter than recommended for a level 1 MOSFET.
Direct Newton iteration for .op point succeeded.
Heightened Def Con from 1.00713e-009 to 4.00713e-009
Heightened Def Con from 7.5e-005 to 7.5004e-005
Heightened Def Con from 0.0002 to 0.000200004
Heightened Def Con from 0.000325 to 0.000325004
