Circuit: * C:\users\leonardo\Desktop\FSAE\inverter-simulation\main-attempt\inverter-spice.asc

Direct Newton iteration failed to find .op point.  (Use ".option noopiter" to skip.)
Starting Gmin stepping
Gmin = 10
Gmin = 1.07374
Gmin = 0.115292
Gmin = 0.0123794
Gmin = 0.00132923
Gmin = 0.000142725
Gmin = 1.5325e-005
Gmin = 1.6455e-006
Gmin = 1.76685e-007
Gmin = 1.89714e-008
Gmin = 2.03704e-009
vernier = 0.5
vernier = 0.666667
Gmin = 6.64404e-010
vernier = 0.333333
vernier = 0.444444
Gmin = 2.94423e-010
vernier = 0.222222
vernier = 0.111111
vernier = 0.0555555
Gmin = 2.50756e-010
vernier = 0.074074
vernier = 0.037037
vernier = 0.0185185
Gmin = 2.35114e-010
vernier = 0.00925925
vernier = 0.0123457
Gmin = 2.30627e-010
vernier = 0.0164609
vernier = 0.0219478
Gmin = 2.21197e-010
vernier = 0.0292638
Gmin = 2.07147e-010
vernier = 0.0146319
vernier = 0.00731595
Gmin = 2.04513e-010
vernier = 0.00975459
vernier = 0.0048773
vernier = 0.00243865
vernier = 0.00121932
vernier = 0.000609662
Gmin = 2.03767e-010
vernier = 0.000457246
Gmin = 0
Gmin stepping failed

Starting source stepping with srcstepmethod=0
Source Step = 3.0303%
Source Step = 33.3333%
Source Step = 63.6364%
Source Step = 93.9394%
Source stepping succeeded in finding the operating point.

Changing Tseed to 1e-010
Changing Tseed to 1e-012
Changing Tseed to 1e-009
Changing Tseed to 1e-013
Changing Tseed to 1e-008
Changing Tseed to 1e-014
Changing Tseed to 1e-007
Changing Tseed to 1e-015
Changing Tseed to 1e-006
Heightened Def Con from 1e-006 +to 1e-006
Heightened Def Con from 1e-006 to 1e-006
Heightened Def Con from 1e-006 to 1e-006
Heightened Def Con from 1e-006 to 1.00002e-006
Heightened Def Con from 1.00002e-006 to 1.00002e-006
Heightened Def Con from 1.00002e-006 to 1.00002e-006
Heightened Def Con from 1.00002e-006 to 1.00002e-006
Heightened Def Con from 1.00002e-006 to 1.00004e-006
Heightened Def Con from 1.00004e-006 to 1.00004e-006
Heightened Def Con from 1.00004e-006 to 1.00004e-006
Heightened Def Con from 1.00004e-006 to 1.00004e-006
Heightened Def Con from 1.00004e-006 to 1.00004e-006
Heightened Def Con from 1.00004e-006 to 1.00004e-006
Heightened Def Con from 1.00004e-006 to 1.00004e-006
Heightened Def Con from 1.00004e-006 to 1.00004e-006
Heightened Def Con from 1.00004e-006 to 1.00004e-006
Heightened Def Con from 1.00004e-006 to 1.00004e-006
Heightened Def Con from 1.00004e-006 to 1.00004e-006
Heightened Def Con from 1.00004e-006 to 1.00004e-006
Heightened Def Con from 1.00004e-006 to 1.00004e-006
Heightened Def Con from 1.00004e-006 to 1.00004e-006
Heightened Def Con from 1.00004e-006 to 1.00104e-006
Heightened Def Con from 1.00104e-006 to 1.00104e-006
Heightened Def Con from 1.00104e-006 to 1.00104e-006
Heightened Def Con from 1.00104e-006 to 1.00104e-006
Heightened Def Con from 1.00104e-006 to 1.00104e-006
Heightened Def Con from 1.00104e-006 to 1.00104e-006
Heightened Def Con from 1.00104e-006 to 1.00104e-006
Heightened Def Con from 1.00104e-006 to 1.00104e-006
Heightened Def Con from 1.00104e-006 to 1.00104e-006
Heightened Def Con from 1.00104e-006 to 1.00104e-006
Heightened Def Con from 1.00104e-006 to 1.00104e-006
Heightened Def Con from 1.00104e-006 to 1.00104e-006
Heightened Def Con from 1.00104e-006 to 1.00117e-006
Heightened Def Con from 1.00117e-006 to 1.00117e-006
Heightened Def Con from 1.00117e-006 to 1.00117e-006
Heightened Def Con from 1.00117e-006 to 1.00117e-006
Heightened Def Con from 1.00117e-006 to 1.00117e-006
Heightened Def Con from 1.00117e-006 to 1.00117e-006
Heightened Def Con from 1.00117e-006 to 1.00117e-006
Heightened Def Con from 1.00117e-006 to 1.00117e-006
Heightened Def Con from 1.00118e-006 to 1.00118e-006
Heightened Def Con from 1.00118e-006 +to 1.00118e-006
Heightened Def Con from 1.00118e-006 to 1.00118e-006
Heightened Def Con from 1.00118e-006 to 1.00118e-006
Heightened Def Con from 1.00118e-006 to 1.00118e-006
Heightened Def Con from 1.00118e-006 to 1.00118e-006
Heightened Def Con from 1.00118e-006 to 1.00118e-006
Heightened Def Con from 1.00118e-006 to 1.00118e-006
Heightened Def Con from 1.00118e-006 to 1.00118e-006
Heightened Def Con from 1.00118e-006 +to 1.00118e-006
Heightened Def Con from 1.00118e-006 to 1.00118e-006
Heightened Def Con from 1.00118e-006 to 1.00118e-006
Heightened Def Con from 1.00118e-006 to 1.00118e-006
Heightened Def Con from 1.00118e-006 to 1.00118e-006
Heightened Def Con from 1.00118e-006 to 1.00118e-006
Heightened Def Con from 1.00118e-006 to 1.00118e-006
Heightened Def Con from 1.00118e-006 to 1.00118e-006
Heightened Def Con from 1.00118e-006 to 1.00118e-006
Heightened Def Con from 1.00118e-006 to 1.00118e-006
Heightened Def Con from 1.00118e-006 to 1.00118e-006
Heightened Def Con from 1.00118e-006 to 1.00118e-006
Heightened Def Con from 1.00118e-006 to 1.00118e-006
Heightened Def Con from 1.00118e-006 to 1.00118e-006
Heightened Def Con from 1.00118e-006 to 1.00118e-006
Heightened Def Con from 1.00118e-006 to 1.00118e-006
Heightened Def Con from 1.00118e-006 to 1.00118e-006
Heightened Def Con from 1.00118e-006 to 1.00118e-006
Heightened Def Con from 1.00118e-006 to 1.00118e-006
Heightened Def Con from 1.00118e-006 to 1.00118e-006
Heightened Def Con from 1.00118e-006 to 1.00118e-006
Heightened Def Con from 1.00118e-006 to 1.00118e-006
Heightened Def Con from 1.00118e-006 to 1.00118e-006
Heightened Def Con from 1.00118e-006 to 1.00118e-006
Heightened Def Con from 1.00118e-006 to 1.00118e-006
Heightened Def Con from 1.00118e-006 to 1.00118e-006
Heightened Def Con from 1.00118e-006 to 1.00118e-006
Heightened Def Con from 1.00118e-006 to 1.00118e-006
Heightened Def Con from 1.00118e-006 to 1.00118e-006
Heightened Def Con from 1.00118e-006 to 1.00118e-006
Heightened Def Con from 1.00118e-006 to 1.00118e-006
Heightened Def Con from 1.00118e-006 to 1.00118e-006
Heightened Def Con from 1.00118e-006 to 1.00118e-006
Heightened Def Con from 1.00118e-006 to 1.00118e-006
Heightened Def Con from 1.00118e-006 to 1.00118e-006
Heightened Def Con from 1.00118e-006 to 1.00118e-006
Heightened Def Con from 1.00118e-006 to 1.00118e-006
Heightened Def Con from 1.00118e-006 to 1.00118e-006
Heightened Def Con from 1.00118e-006 to 1.00118e-006
Heightened Def Con from 1.00118e-006 to 1.00118e-006
Heightened Def Con from 1.00118e-006 to 1.00118e-006
Heightened Def Con from 1.00118e-006 to 1.00118e-006
Heightened Def Con from 1.00118e-006 to 1.00118e-006
Heightened Def Con from 1.00118e-006 to 1.00118e-006
Heightened Def Con from 1.00118e-006 to 1.00118e-006
Heightened Def Con from 1.00118e-006 to 1.00118e-006
Heightened Def Con from 1.00118e-006 to 1.00118e-006
Heightened Def Con from 1.00118e-006 to 1.00118e-006
Heightened Def Con from 1.00118e-006 to 1.00118e-006
Heightened Def Con from 1.00118e-006 to 1.00118e-006
Heightened Def Con from 1.00118e-006 to 1.00118e-006
Heightened Def Con from 1.00118e-006 to 1.00118e-006
Heightened Def Con from 1.00118e-006 +to 1.00118e-006
Heightened Def Con from 1.00118e-006 to 1.00118e-006
Heightened Def Con from 1.00118e-006 to 1.00118e-006
Heightened Def Con from 1.00118e-006 to 1.00118e-006
Heightened Def Con from 1.00118e-006 to 1.00118e-006
Heightened Def Con from 1.00118e-006 to 1.00118e-006
Heightened Def Con from 1.00119e-006 to 1.00119e-006
Heightened Def Con from 1.00119e-006 to 1.00119e-006
Heightened Def Con from 1.00119e-006 to 1.00119e-006
Heightened Def Con from 1.00119e-006 to 1.00119e-006
Heightened Def Con from 1.00119e-006 to 1.00119e-006
Heightened Def Con from 1.00119e-006 to 1.0012e-006
Heightened Def Con from 1.0012e-006 to 1.0012e-006
Heightened Def Con from 1.0012e-006 to 1.0012e-006
Heightened Def Con from 1.0012e-006 to 1.0012e-006
Heightened Def Con from 1.0012e-006 to 1.0012e-006
Heightened Def Con from 1.0012e-006 to 1.0012e-006
Heightened Def Con from 1.0012e-006 to 1.0012e-006
Heightened Def Con from 1.0012e-006 to 1.0012e-006
Heightened Def Con from 1.0012e-006 to 1.0012e-006
Heightened Def Con from 1.0012e-006 to 1.0012e-006
Heightened Def Con from 1.0012e-006 to 1.0012e-006
Heightened Def Con from 1.0012e-006 to 1.0012e-006
Heightened Def Con from 1.0012e-006 to 1.0012e-006
Heightened Def Con from 1.0012e-006 to 1.0012e-006
Heightened Def Con from 1.0012e-006 to 1.0012e-006
Heightened Def Con from 1.0012e-006 to 1.0012e-006
Heightened Def Con from 1.0012e-006 to 1.0012e-006
Heightened Def Con from 1.00121e-006 to 1.00121e-006
Heightened Def Con from 1.00121e-006 to 1.00121e-006
Heightened Def Con from 1.00121e-006 to 1.00121e-006
Heightened Def Con from 1.00121e-006 to 1.00121e-006
Heightened Def Con from 1.00121e-006 to 1.00121e-006
Heightened Def Con from 1.00121e-006 to 1.00121e-006
Heightened Def Con from 1.00121e-006 to 1.00121e-006
Heightened Def Con from 1.00121e-006 to 1.00121e-006
Heightened Def Con from 1.00121e-006 to 1.00121e-006
Heightened Def Con from 1.00121e-006 to 1.00121e-006
Heightened Def Con from 1.00121e-006 to 1.00121e-006
Heightened Def Con from 1.00121e-006 to 1.00121e-006
Heightened Def Con from 1.00121e-006 to 1.00121e-006
Heightened Def Con from 1.00121e-006 to 1.00121e-006
Heightened Def Con from 1.00121e-006 to 1.00121e-006
Heightened Def Con from 1.00121e-006 to 1.00121e-006
Heightened Def Con from 1.00121e-006 to 1.00121e-006
Heightened Def Con from 1.00121e-006 to 1.00121e-006
Heightened Def Con from 1.00121e-006 to 1.00121e-006
Heightened Def Con from 1.00121e-006 to 1.00121e-006
Heightened Def Con from 1.00121e-006 to 1.00121e-006
Heightened Def Con from 1.00121e-006 to 1.00121e-006
Heightened Def Con from 1.00121e-006 to 1.00121e-006
Heightened Def Con from 1.00121e-006 to 1.00121e-006
Heightened Def Con from 1.00121e-006 to 1.00121e-006
Heightened Def Con from 1.00121e-006 to 1.00121e-006
Heightened Def Con from 1.00121e-006 to 1.00121e-006
Heightened Def Con from 1.00121e-006 to 1.00121e-006
Heightened Def Con from 1.00121e-006 to 1.00121e-006
Heightened Def Con from 1.00121e-006 to 1.00121e-006
Heightened Def Con from 1.00121e-006 to 1.00121e-006
Heightened Def Con from 1.00121e-006 to 1.00121e-006
Heightened Def Con from 1.00121e-006 to 1.00121e-006
Heightened Def Con from 1.00121e-006 to 1.00121e-006
Heightened Def Con from 1.00121e-006 to 1.00121e-006
Heightened Def Con from 1.00121e-006 to 1.00121e-006
Heightened Def Con from 1.00121e-006 to 1.00121e-006
Heightened Def Con from 1.00121e-006 to 1.00121e-006
Heightened Def Con from 1.00121e-006 to 1.00121e-006
Heightened Def Con from 1.00121e-006 +to 1.00121e-006
Heightened Def Con from 1.00121e-006 to 1.00121e-006
Heightened Def Con from 1.00121e-006 to 1.00121e-006
Heightened Def Con from 1.00121e-006 to 1.00122e-006
Heightened Def Con from 1.00122e-006 to 1.00122e-006
Heightened Def Con from 1.00122e-006 to 1.00122e-006
Heightened Def Con from 1.00122e-006 to 1.00222e-006
Heightened Def Con from 1.00222e-006 to 1.00222e-006
Heightened Def Con from 1.00222e-006 to 1.00222e-006
Heightened Def Con from 1.00222e-006 to 1.00222e-006
Heightened Def Con from 1.00222e-006 to 1.00222e-006
Heightened Def Con from 1.00222e-006 +to 1.00222e-006
Heightened Def Con from 1.00222e-006 to 1.00222e-006
Heightened Def Con from 1.00222e-006 to 1.00222e-006
Heightened Def Con from 1.00222e-006 to 1.00222e-006
Heightened Def Con from 1.00222e-006 to 1.00222e-006
Heightened Def Con from 1.00222e-006 to 1.00222e-006
Heightened Def Con from 1.00222e-006 +to 1.00222e-006
Heightened Def Con from 1.00222e-006 to 1.00222e-006
Heightened Def Con from 1.00222e-006 to 1.00222e-006
Heightened Def Con from 1.00222e-006 to 1.00223e-006
Heightened Def Con from 1.00223e-006 to 1.00223e-006
Heightened Def Con from 1.00223e-006 to 1.00223e-006
Heightened Def Con from 1.00223e-006 to 1.00223e-006
Heightened Def Con from 1.00223e-006 to 1.00235e-006
Heightened Def Con from 1.00235e-006 to 1.00235e-006
Heightened Def Con from 1.00235e-006 to 1.00235e-006
Heightened Def Con from 1.00235e-006 to 1.00335e-006
Heightened Def Con from 1.00335e-006 to 1.00335e-006
Heightened Def Con from 1.00335e-006 to 1.00335e-006
Heightened Def Con from 1.00335e-006 to 1.00335e-006
Heightened Def Con from 1.00335e-006 to 1.00335e-006
Heightened Def Con from 1.00335e-006 to 1.00335e-006
Heightened Def Con from 1.00335e-006 to 1.00335e-006
Heightened Def Con from 1.00336e-006 to 1.00336e-006
Heightened Def Con from 1.00336e-006 to 1.00336e-006
Heightened Def Con from 1.00336e-006 to 1.00336e-006
Heightened Def Con from 1.00336e-006 to 1.00336e-006
Heightened Def Con from 1.00336e-006 to 1.00336e-006
Heightened Def Con from 1.00336e-006 to 1.00336e-006
Heightened Def Con from 1.00336e-006 to 1.00336e-006
Heightened Def Con from 1.00336e-006 to 1.00336e-006
Heightened Def Con from 1.00336e-006 to 1.00336e-006
Heightened Def Con from 1.00336e-006 to 1.00336e-006
Heightened Def Con from 1.00336e-006 to 1.00336e-006
Heightened Def Con from 1.00336e-006 to 1.00336e-006
Heightened Def Con from 1.00336e-006 to 1.00336e-006
Heightened Def Con from 1.00336e-006 to 1.00336e-006
Heightened Def Con from 1.00336e-006 to 1.00336e-006
Heightened Def Con from 1.00336e-006 to 1.00336e-006
Heightened Def Con from 1.00336e-006 to 1.00336e-006
Heightened Def Con from 1.00336e-006 to 1.00336e-006
Heightened Def Con from 1.00336e-006 to 1.00338e-006
Heightened Def Con from 1.00338e-006 to 1.00338e-006
Heightened Def Con from 1.00338e-006 to 1.00338e-006
Heightened Def Con from 1.00338e-006 to 1.00338e-006
Heightened Def Con from 1.00338e-006 to 1.00338e-006
Heightened Def Con from 1.00338e-006 to 1.00338e-006
Heightened Def Con from 1.00338e-006 to 1.00338e-006
Heightened Def Con from 1.00338e-006 to 1.00338e-006
Heightened Def Con from 1.00338e-006 to 1.00438e-006
Heightened Def Con from 1.00438e-006 to 1.00438e-006
Heightened Def Con from 1.00438e-006 to 1.00438e-006
Heightened Def Con from 1.00438e-006 to 1.00438e-006
Heightened Def Con from 1.00438e-006 to 1.00438e-006
Heightened Def Con from 1.00438e-006 to 1.00438e-006
Heightened Def Con from 1.00438e-006 to 1.00438e-006
Heightened Def Con from 1.00438e-006 to 1.00438e-006
Heightened Def Con from 1.00438e-006 to 1.00438e-006
Heightened Def Con from 1.00438e-006 to 1.00438e-006
Heightened Def Con from 1.00438e-006 to 1.00438e-006
Heightened Def Con from 1.00438e-006 to 1.00438e-006
Heightened Def Con from 1.00438e-006 to 1.00442e-006
Heightened Def Con from 1.00442e-006 to 1.00442e-006
Heightened Def Con from 1.00442e-006 to 1.00442e-006
Heightened Def Con from 1.00442e-006 to 1.00442e-006
Heightened Def Con from 1.00442e-006 to 1.00442e-006
Heightened Def Con from 1.00442e-006 to 1.00442e-006
Heightened Def Con from 1.00442e-006 to 1.00442e-006
Heightened Def Con from 1.00442e-006 to 1.00442e-006
Heightened Def Con from 1.00442e-006 to 1.00442e-006
Heightened Def Con from 1.00442e-006 to 1.00442e-006
Heightened Def Con from 1.00442e-006 to 1.00442e-006
Heightened Def Con from 1.00442e-006 to 1.00442e-006
Heightened Def Con from 1.00442e-006 to 1.00442e-006
Heightened Def Con from 1.00442e-006 to 1.00442e-006
Heightened Def Con from 1.00442e-006 to 1.00442e-006
Heightened Def Con from 1.00442e-006 to 1.00442e-006
Heightened Def Con from 1.00442e-006 to 1.00442e-006
Heightened Def Con from 1.00442e-006 to 1.00442e-006
Heightened Def Con from 1.00442e-006 to 1.00442e-006
Heightened Def Con from 1.00442e-006 to 1.00442e-006
Heightened Def Con from 1.00442e-006 to 1.00442e-006
Heightened Def Con from 1.00442e-006 to 1.00442e-006
Heightened Def Con from 1.00442e-006 to 1.00442e-006
Heightened Def Con from 1.00442e-006 to 1.00442e-006
Heightened Def Con from 1.00442e-006 to 1.00442e-006
Heightened Def Con from 1.00442e-006 to 1.00442e-006
Heightened Def Con from 1.00442e-006 to 1.00442e-006
Heightened Def Con from 1.00442e-006 to 1.00442e-006
Heightened Def Con from 1.00442e-006 to 1.00442e-006
Heightened Def Con from 1.00442e-006 to 1.00442e-006
Heightened Def Con from 1.00442e-006 to 1.00442e-006
Heightened Def Con from 1.00442e-006 to 1.00442e-006
Heightened Def Con from 1.00442e-006 to 1.00442e-006
Heightened Def Con from 1.00442e-006 to 1.00442e-006
Heightened Def Con from 1.00442e-006 to 1.00442e-006
Heightened Def Con from 1.00442e-006 to 1.00442e-006
Heightened Def Con from 1.00442e-006 to 1.00442e-006
Heightened Def Con from 1.00442e-006 to 1.00442e-006
Heightened Def Con from 1.00442e-006 to 1.00443e-006
Heightened Def Con from 1.00443e-006 to 1.00443e-006
Heightened Def Con from 1.00443e-006 to 1.00443e-006
Heightened Def Con from 1.00443e-006 to 1.00443e-006
Heightened Def Con from 1.00443e-006 to 1.00443e-006
Heightened Def Con from 1.00443e-006 to 1.00443e-006
Heightened Def Con from 1.00443e-006 to 1.00443e-006
Heightened Def Con from 1.00443e-006 to 1.00443e-006
Heightened Def Con from 1.00443e-006 to 1.00443e-006
Heightened Def Con from 1.00443e-006 to 1.00443e-006
Heightened Def Con from 1.00443e-006 to 1.00443e-006
Heightened Def Con from 1.00443e-006 to 1.00443e-006
Heightened Def Con from 1.00443e-006 to 1.00543e-006
Heightened Def Con from 1.00543e-006 to 1.00543e-006
Heightened Def Con from 1.00543e-006 to 1.00543e-006
Heightened Def Con from 1.00543e-006 to 1.00543e-006
Heightened Def Con from 1.00543e-006 to 1.00543e-006
Heightened Def Con from 1.00543e-006 +to 1.00543e-006
Heightened Def Con from 1.00543e-006 to 1.00543e-006
Heightened Def Con from 1.00543e-006 to 1.00543e-006
Heightened Def Con from 1.00543e-006 to 1.00543e-006
Heightened Def Con from 1.00543e-006 +to 1.00543e-006
Heightened Def Con from 1.00543e-006 to 1.00543e-006
Heightened Def Con from 1.00543e-006 to 1.00543e-006
Heightened Def Con from 1.00543e-006 to 1.00543e-006
Heightened Def Con from 1.00543e-006 to 1.00543e-006
Heightened Def Con from 1.00543e-006 to 1.00543e-006
Heightened Def Con from 1.00543e-006 to 1.00543e-006
Heightened Def Con from 1.00543e-006 to 1.00543e-006
Heightened Def Con from 1.00543e-006 to 1.00543e-006
Heightened Def Con from 1.00543e-006 to 1.00543e-006
Heightened Def Con from 1.00543e-006 to 1.00543e-006
Heightened Def Con from 1.00543e-006 to 1.00543e-006
Heightened Def Con from 1.00543e-006 to 1.00543e-006
Heightened Def Con from 1.00543e-006 to 1.00543e-006
Heightened Def Con from 1.00543e-006 to 1.00556e-006
Heightened Def Con from 1.00556e-006 to 1.00556e-006
Heightened Def Con from 1.00556e-006 to 1.00556e-006
Heightened Def Con from 1.00556e-006 to 1.00556e-006
Heightened Def Con from 1.00556e-006 +to 1.00556e-006
Heightened Def Con from 1.00556e-006 to 1.00556e-006
Heightened Def Con from 1.00556e-006 to 1.00556e-006
Heightened Def Con from 1.00556e-006 to 1.00556e-006
Heightened Def Con from 1.00556e-006 to 1.00556e-006
Heightened Def Con from 1.00556e-006 to 1.00556e-006
Heightened Def Con from 1.00556e-006 to 1.00556e-006
Heightened Def Con from 1.00556e-006 to 1.00556e-006
Heightened Def Con from 1.00556e-006 to 1.00556e-006
Heightened Def Con from 1.00556e-006 to 1.00556e-006
Heightened Def Con from 1.00556e-006 +to 1.00556e-006
Heightened Def Con from 1.00556e-006 to 1.00556e-006
Heightened Def Con from 1.00556e-006 to 1.00556e-006
Heightened Def Con from 1.00556e-006 to 1.00556e-006
Heightened Def Con from 1.00556e-006 to 1.00556e-006
Heightened Def Con from 1.00556e-006 to 1.00569e-006
Heightened Def Con from 1.00569e-006 +to 1.00569e-006
Heightened Def Con from 1.00569e-006 to 1.00569e-006
Heightened Def Con from 1.00569e-006 to 1.00569e-006
Heightened Def Con from 1.00569e-006 to 1.00569e-006
Heightened Def Con from 1.00569e-006 to 1.00569e-006
Heightened Def Con from 1.00569e-006 to 1.00569e-006
Heightened Def Con from 1.00569e-006 to 1.00569e-006
Heightened Def Con from 1.00569e-006 to 1.00569e-006
Heightened Def Con from 1.00569e-006 to 1.00569e-006
Heightened Def Con from 1.00569e-006 to 1.00569e-006
Heightened Def Con from 1.00569e-006 to 1.00569e-006
Heightened Def Con from 1.00569e-006 to 1.00582e-006
Heightened Def Con from 1.00582e-006 to 1.00582e-006
Heightened Def Con from 1.00582e-006 to 1.00582e-006
Heightened Def Con from 1.00582e-006 to 1.00582e-006
Heightened Def Con from 1.00582e-006 to 1.00595e-006
Heightened Def Con from 1.00595e-006 to 1.00595e-006
Heightened Def Con from 1.00595e-006 to 1.00595e-006
Heightened Def Con from 1.00595e-006 to 1.00595e-006
Heightened Def Con from 1.00595e-006 to 1.00595e-006
Heightened Def Con from 1.00595e-006 to 1.00595e-006
Heightened Def Con from 1.00595e-006 to 1.00595e-006
Heightened Def Con from 1.00595e-006 +to 1.00595e-006
Heightened Def Con from 1.00595e-006 to 1.00595e-006
Heightened Def Con from 1.00595e-006 to 1.00595e-006
Heightened Def Con from 1.00595e-006 to 1.00595e-006
Heightened Def Con from 1.00595e-006 to 1.00595e-006
Heightened Def Con from 1.00595e-006 to 1.00595e-006
Heightened Def Con from 1.00595e-006 to 1.00595e-006
Heightened Def Con from 1.00595e-006 to 1.00595e-006
Heightened Def Con from 1.00595e-006 to 1.00595e-006
Heightened Def Con from 1.00595e-006 to 1.00595e-006
Heightened Def Con from 1.00595e-006 to 1.00595e-006
Heightened Def Con from 1.00595e-006 to 1.00595e-006
Heightened Def Con from 1.00595e-006 to 1.00595e-006
Heightened Def Con from 1.00595e-006 to 1.00595e-006
Heightened Def Con from 1.00595e-006 to 1.00595e-006
Heightened Def Con from 1.00595e-006 to 1.00595e-006
Heightened Def Con from 1.00595e-006 to 1.00595e-006
Heightened Def Con from 1.00595e-006 to 1.00595e-006
Heightened Def Con from 1.00595e-006 to 1.00595e-006
Heightened Def Con from 1.00595e-006 to 1.00595e-006
Heightened Def Con from 1.00595e-006 to 1.00595e-006
Heightened Def Con from 1.00595e-006 to 1.00595e-006
Heightened Def Con from 1.00595e-006 to 1.00595e-006
Heightened Def Con from 1.00595e-006 to 1.00595e-006
Heightened Def Con from 1.00595e-006 to 1.00595e-006
Heightened Def Con from 1.00596e-006 to 1.00596e-006
Heightened Def Con from 1.00596e-006 to 1.00596e-006
Heightened Def Con from 1.00596e-006 to 1.00596e-006
Heightened Def Con from 1.00596e-006 to 1.00596e-006
Heightened Def Con from 1.00596e-006 to 1.00596e-006
Heightened Def Con from 1.00596e-006 to 1.00596e-006
Heightened Def Con from 1.00596e-006 to 1.00596e-006
Heightened Def Con from 1.00596e-006 to 1.00596e-006
Heightened Def Con from 1.00596e-006 to 1.00596e-006
Heightened Def Con from 1.00596e-006 to 1.00596e-006
Heightened Def Con from 1.00596e-006 to 1.00596e-006
Heightened Def Con from 1.00596e-006 to 1.00596e-006
Heightened Def Con from 1.00596e-006 to 1.00596e-006
Heightened Def Con from 1.00596e-006 to 1.00596e-006
Heightened Def Con from 1.00596e-006 to 1.00596e-006
Heightened Def Con from 1.00596e-006 to 1.00596e-006
Heightened Def Con from 1.00596e-006 to 1.00596e-006
Heightened Def Con from 1.00596e-006 to 1.00596e-006
Heightened Def Con from 1.00596e-006 to 1.00596e-006
Heightened Def Con from 1.00596e-006 to 1.00596e-006
Heightened Def Con from 1.00596e-006 to 1.00596e-006
Heightened Def Con from 1.00596e-006 to 1.00596e-006
Heightened Def Con from 1.00596e-006 to 1.00596e-006
Heightened Def Con from 1.00596e-006 to 1.00596e-006
Heightened Def Con from 1.00596e-006 to 1.00596e-006
Heightened Def Con from 1.00596e-006 to 1.00596e-006
Heightened Def Con from 1.00596e-006 +to 1.00596e-006
Heightened Def Con from 1.00596e-006 to 1.00596e-006
Heightened Def Con from 1.00596e-006 to 1.00596e-006
Heightened Def Con from 1.00596e-006 to 1.00596e-006
Heightened Def Con from 1.00596e-006 to 1.00596e-006
Heightened Def Con from 1.00596e-006 to 1.00596e-006
Heightened Def Con from 1.00596e-006 to 1.00596e-006
Heightened Def Con from 1.00596e-006 to 1.00596e-006
Heightened Def Con from 1.00596e-006 to 1.00596e-006
Heightened Def Con from 1.00596e-006 to 1.00596e-006
Heightened Def Con from 1.00596e-006 to 1.00596e-006
Heightened Def Con from 1.00596e-006 to 1.00596e-006
Heightened Def Con from 1.00596e-006 to 1.00596e-006
Heightened Def Con from 1.00596e-006 to 1.00596e-006
Heightened Def Con from 1.00596e-006 to 1.00596e-006
Heightened Def Con from 1.00596e-006 to 1.00596e-006
Heightened Def Con from 1.00596e-006 to 1.00596e-006
Heightened Def Con from 1.00596e-006 to 1.00596e-006
Heightened Def Con from 1.00596e-006 to 1.00596e-006
Heightened Def Con from 1.00596e-006 to 1.00596e-006
Heightened Def Con from 1.00596e-006 to 1.00596e-006
Heightened Def Con from 1.00596e-006 to 1.00596e-006
Heightened Def Con from 1.00596e-006 to 1.00596e-006
Heightened Def Con from 1.00596e-006 to 1.00596e-006
Heightened Def Con from 1.00596e-006 to 1.00596e-006
Heightened Def Con from 1.00596e-006 to 1.00596e-006
Heightened Def Con from 1.00596e-006 to 1.00596e-006
Heightened Def Con from 1.00596e-006 to 1.00596e-006
Heightened Def Con from 1.00596e-006 to 1.00596e-006
Heightened Def Con from 1.00596e-006 to 1.00596e-006
Heightened Def Con from 1.00596e-006 to 1.00596e-006
Heightened Def Con from 1.00596e-006 to 1.00596e-006
Heightened Def Con from 1.00596e-006 to 1.00596e-006
Heightened Def Con from 1.00596e-006 to 1.00596e-006
Heightened Def Con from 1.00596e-006 to 1.00596e-006
Heightened Def Con from 1.00596e-006 to 1.00596e-006
Heightened Def Con from 1.00596e-006 to 1.00596e-006
Heightened Def Con from 1.00596e-006 to 1.00596e-006
Heightened Def Con from 1.00597e-006 to 1.00597e-006
Heightened Def Con from 1.00597e-006 to 1.00597e-006
Heightened Def Con from 1.00597e-006 to 1.00597e-006
Heightened Def Con from 1.00597e-006 to 1.00597e-006
Heightened Def Con from 1.00597e-006 to 1.00597e-006
Heightened Def Con from 1.00597e-006 to 1.00597e-006
Heightened Def Con from 1.00597e-006 to 1.00597e-006
Heightened Def Con from 1.00597e-006 to 1.00597e-006
Heightened Def Con from 1.00597e-006 to 1.00597e-006
Heightened Def Con from 1.00597e-006 to 1.00597e-006
Heightened Def Con from 1.00597e-006 to 1.00597e-006
Heightened Def Con from 1.00597e-006 to 1.00597e-006
Heightened Def Con from 1.00597e-006 to 1.00597e-006
Heightened Def Con from 1.00597e-006 to 1.00597e-006
Heightened Def Con from 1.00597e-006 to 1.00597e-006
Heightened Def Con from 1.00597e-006 to 1.00597e-006
Heightened Def Con from 1.00597e-006 to 1.00597e-006
Heightened Def Con from 1.00597e-006 to 1.00597e-006
Heightened Def Con from 1.00597e-006 to 1.00597e-006
Heightened Def Con from 1.00597e-006 to 1.00597e-006
Heightened Def Con from 1.00597e-006 to 1.00597e-006
Heightened Def Con from 1.00597e-006 to 1.00597e-006
Heightened Def Con from 1.00597e-006 to 1.00597e-006
Heightened Def Con from 1.00597e-006 to 1.00597e-006
Heightened Def Con from 1.00597e-006 to 1.00597e-006
Heightened Def Con from 1.00597e-006 to 1.00597e-006
Heightened Def Con from 1.00597e-006 to 1.00597e-006
Heightened Def Con from 1.00597e-006 to 1.00597e-006
Heightened Def Con from 1.00597e-006 to 1.00597e-006
Heightened Def Con from 1.00597e-006 to 1.00597e-006
Heightened Def Con from 1.00597e-006 to 1.00597e-006
Heightened Def Con from 1.00597e-006 to 1.00597e-006
Heightened Def Con from 1.00597e-006 to 1.00597e-006
Heightened Def Con from 1.00597e-006 to 1.00597e-006
Heightened Def Con from 1.00597e-006 to 1.00597e-006
Heightened Def Con from 1.00597e-006 to 1.00597e-006
Heightened Def Con from 1.00597e-006 to 1.00597e-006
Heightened Def Con from 1.00597e-006 to 1.00597e-006
Heightened Def Con from 1.00597e-006 to 1.00597e-006
Heightened Def Con from 1.00597e-006 to 1.00597e-006
Heightened Def Con from 1.00597e-006 to 1.00597e-006
Heightened Def Con from 1.00597e-006 to 1.00597e-006
Heightened Def Con from 1.00597e-006 to 1.00597e-006
Heightened Def Con from 1.00597e-006 to 1.00597e-006
Heightened Def Con from 1.00597e-006 to 1.00597e-006
Heightened Def Con from 1.00597e-006 to 1.00597e-006
Heightened Def Con from 1.00597e-006 to 1.00597e-006
Heightened Def Con from 1.00597e-006 to 1.00597e-006
Heightened Def Con from 1.00597e-006 to 1.00597e-006
Heightened Def Con from 1.00597e-006 to 1.00597e-006
Heightened Def Con from 1.00597e-006 +to 1.00597e-006
Heightened Def Con from 1.00597e-006 to 1.00597e-006
Heightened Def Con from 1.00598e-006 to 1.00598e-006
Heightened Def Con from 1.00598e-006 +to 1.00598e-006
Heightened Def Con from 1.00598e-006 to 1.00598e-006
Heightened Def Con from 1.00598e-006 to 1.00598e-006
Heightened Def Con from 1.00598e-006 to 1.00598e-006
Heightened Def Con from 1.00598e-006 to 1.00598e-006
Heightened Def Con from 1.00598e-006 to 1.00598e-006
Heightened Def Con from 1.00598e-006 to 1.00598e-006
Heightened Def Con from 1.00598e-006 to 1.00598e-006
Heightened Def Con from 1.00598e-006 to 1.00598e-006
Heightened Def Con from 1.00598e-006 to 1.00598e-006
Heightened Def Con from 1.00598e-006 to 1.00598e-006
Heightened Def Con from 1.00598e-006 to 1.00598e-006
Heightened Def Con from 1.00598e-006 to 1.00598e-006
Heightened Def Con from 1.00598e-006 to 1.00598e-006
Heightened Def Con from 1.00598e-006 to 1.00598e-006
Heightened Def Con from 1.00598e-006 to 1.00598e-006
Heightened Def Con from 1.00598e-006 to 1.00598e-006
Heightened Def Con from 1.00598e-006 to 1.00598e-006
Heightened Def Con from 1.00598e-006 to 1.00598e-006
Heightened Def Con from 1.00598e-006 to 1.00598e-006
Heightened Def Con from 1.00598e-006 to 1.00698e-006
Heightened Def Con from 1.00698e-006 to 1.00698e-006
Heightened Def Con from 1.00698e-006 to 1.00698e-006
Heightened Def Con from 1.00698e-006 to 1.00698e-006
Heightened Def Con from 1.00699e-006 to 1.00699e-006
Heightened Def Con from 1.00699e-006 to 1.00699e-006
Heightened Def Con from 1.00699e-006 to 1.00699e-006
Heightened Def Con from 1.00699e-006 to 1.00699e-006
Heightened Def Con from 1.00699e-006 to 1.00699e-006
Heightened Def Con from 1.00699e-006 to 1.00699e-006
Heightened Def Con from 1.00699e-006 to 1.00699e-006
Heightened Def Con from 1.00699e-006 to 1.00699e-006
Heightened Def Con from 1.00699e-006 to 1.00699e-006
Heightened Def Con from 1.00699e-006 to 1.00699e-006
Heightened Def Con from 1.00699e-006 to 1.00699e-006
Heightened Def Con from 1.00699e-006 to 1.00699e-006
Heightened Def Con from 1.00699e-006 to 1.00699e-006
Heightened Def Con from 1.00699e-006 to 1.00699e-006
Heightened Def Con from 1.00699e-006 to 1.00699e-006
Heightened Def Con from 1.00699e-006 +to 1.00699e-006
Heightened Def Con from 1.00699e-006 to 1.00699e-006
Heightened Def Con from 1.00699e-006 to 1.00699e-006
Heightened Def Con from 1.00699e-006 to 1.00699e-006
Heightened Def Con from 1.00699e-006 to 1.00699e-006
Heightened Def Con from 1.00699e-006 to 1.00699e-006
Heightened Def Con from 1.00699e-006 to 1.00699e-006
Heightened Def Con from 1.00699e-006 to 1.00699e-006
Heightened Def Con from 1.00699e-006 to 1.00699e-006
Heightened Def Con from 1.00699e-006 to 1.00699e-006
Heightened Def Con from 1.00699e-006 to 1.00699e-006
Heightened Def Con from 1.00699e-006 to 1.00699e-006
Heightened Def Con from 1.00699e-006 to 1.00699e-006
Heightened Def Con from 1.00699e-006 to 1.00699e-006
Heightened Def Con from 1.00699e-006 to 1.00699e-006
Heightened Def Con from 1.00699e-006 to 1.00699e-006
Heightened Def Con from 1.00699e-006 to 1.00699e-006
Heightened Def Con from 1.00699e-006 to 1.00699e-006
Heightened Def Con from 1.00699e-006 to 1.00699e-006
Heightened Def Con from 1.00699e-006 to 1.00701e-006
Heightened Def Con from 1.00701e-006 to 1.00701e-006
Heightened Def Con from 1.00701e-006 to 1.00701e-006
Heightened Def Con from 1.00701e-006 to 1.00701e-006
Heightened Def Con from 1.00701e-006 to 1.00701e-006
Heightened Def Con from 1.00701e-006 to 1.00701e-006
Heightened Def Con from 1.00701e-006 to 1.00701e-006
Heightened Def Con from 1.00701e-006 to 1.00701e-006
Heightened Def Con from 1.00701e-006 to 1.00701e-006
Heightened Def Con from 1.00701e-006 to 1.00701e-006
Heightened Def Con from 1.00701e-006 to 1.00701e-006
Heightened Def Con from 1.00701e-006 to 1.00714e-006
Heightened Def Con from 1.00714e-006 to 1.00714e-006
Heightened Def Con from 1.00714e-006 to 1.00715e-006
Heightened Def Con from 1.00715e-006 to 1.00715e-006
Heightened Def Con from 1.00715e-006 to 1.00715e-006
Heightened Def Con from 1.00715e-006 to 1.00715e-006
Heightened Def Con from 1.00715e-006 to 1.00715e-006
Heightened Def Con from 1.00715e-006 to 1.00715e-006
Heightened Def Con from 1.00715e-006 to 1.00715e-006
Heightened Def Con from 1.00715e-006 to 1.00715e-006
Heightened Def Con from 1.00716e-006 to 1.00716e-006
Heightened Def Con from 1.00716e-006 to 1.00716e-006
Heightened Def Con from 1.00716e-006 to 1.00716e-006
Heightened Def Con from 1.00716e-006 to 1.00716e-006
Heightened Def Con from 1.00716e-006 to 1.00716e-006
Heightened Def Con from 1.00716e-006 to 1.00716e-006
Heightened Def Con from 1.00716e-006 to 1.00716e-006
Heightened Def Con from 1.00716e-006 to 1.00716e-006
Heightened Def Con from 1.00716e-006 to 1.00716e-006
Heightened Def Con from 1.00716e-006 to 1.00716e-006
Heightened Def Con from 1.00716e-006 to 1.00716e-006
Heightened Def Con from 1.00716e-006 to 1.00716e-006
Heightened Def Con from 1.00716e-006 to 1.00716e-006
Heightened Def Con from 1.00716e-006 to 1.00716e-006
Heightened Def Con from 1.00716e-006 to 1.00716e-006
Heightened Def Con from 1.00716e-006 to 1.00716e-006
Heightened Def Con from 1.00716e-006 to 1.00716e-006
Heightened Def Con from 1.00716e-006 to 1.00716e-006
Heightened Def Con from 1.00716e-006 to 1.00716e-006
Heightened Def Con from 1.00716e-006 to 1.00716e-006
Heightened Def Con from 1.00716e-006 to 1.00716e-006
Heightened Def Con from 1.00716e-006 to 1.00716e-006
Heightened Def Con from 1.00716e-006 to 1.00716e-006
Heightened Def Con from 1.00716e-006 to 1.00716e-006
Heightened Def Con from 1.00716e-006 to 1.00716e-006
Heightened Def Con from 1.00716e-006 to 1.00716e-006
Heightened Def Con from 1.00716e-006 to 1.00716e-006
Heightened Def Con from 1.00716e-006 to 1.00716e-006
Heightened Def Con from 1.00716e-006 to 1.00716e-006
Heightened Def Con from 1.00716e-006 to 1.00729e-006
Heightened Def Con from 1.00729e-006 to 1.00729e-006
Heightened Def Con from 1.00729e-006 to 1.00729e-006
Heightened Def Con from 1.00729e-006 to 1.00729e-006
Heightened Def Con from 1.00729e-006 to 1.00729e-006
Heightened Def Con from 1.00729e-006 to 1.00729e-006
Heightened Def Con from 1.00729e-006 to 1.00729e-006
Heightened Def Con from 1.00729e-006 to 1.00729e-006
Heightened Def Con from 1.00729e-006 to 1.00729e-006
Heightened Def Con from 1.00729e-006 to 1.00729e-006
Heightened Def Con from 1.00729e-006 to 1.00729e-006
Heightened Def Con from 1.00729e-006 to 1.00729e-006
Heightened Def Con from 1.00729e-006 to 1.00729e-006
Heightened Def Con from 1.00729e-006 to 1.00729e-006
Heightened Def Con from 1.00729e-006 to 1.00729e-006
Heightened Def Con from 1.00729e-006 to 1.00729e-006
Heightened Def Con from 1.00729e-006 to 1.00729e-006
Heightened Def Con from 1.0073e-006 to 1.0073e-006
Heightened Def Con from 1.0073e-006 to 1.0073e-006
Heightened Def Con from 1.0073e-006 to 1.0073e-006
Heightened Def Con from 1.0073e-006 to 1.0073e-006
Heightened Def Con from 1.0073e-006 to 1.0073e-006
Heightened Def Con from 1.0073e-006 to 1.0073e-006
Heightened Def Con from 1.0073e-006 to 1.0073e-006
Heightened Def Con from 1.0073e-006 to 1.0073e-006
Heightened Def Con from 1.0073e-006 to 1.0073e-006
Heightened Def Con from 1.0073e-006 to 1.0073e-006
Heightened Def Con from 1.0073e-006 to 1.0073e-006
Heightened Def Con from 1.0073e-006 to 1.0073e-006
Heightened Def Con from 1.0073e-006 to 1.0073e-006
Heightened Def Con from 1.0073e-006 +to 1.0073e-006
Heightened Def Con from 1.0073e-006 to 1.0073e-006
Heightened Def Con from 1.0073e-006 to 1.0073e-006
Heightened Def Con from 1.0073e-006 +to 1.0073e-006
Heightened Def Con from 1.0073e-006 to 1.0073e-006
Heightened Def Con from 1.0073e-006 to 1.0073e-006
Heightened Def Con from 1.0073e-006 to 1.0073e-006
Heightened Def Con from 1.0073e-006 to 1.0073e-006
Heightened Def Con from 1.0073e-006 to 1.00743e-006
Heightened Def Con from 1.00743e-006 to 1.00743e-006
Heightened Def Con from 1.00743e-006 to 1.00743e-006
Heightened Def Con from 1.00743e-006 to 1.00743e-006
Heightened Def Con from 1.00743e-006 to 1.00743e-006
Heightened Def Con from 1.00743e-006 to 1.00743e-006
Heightened Def Con from 1.00743e-006 to 1.00743e-006
Heightened Def Con from 1.00743e-006 to 1.00743e-006
Heightened Def Con from 1.00743e-006 to 1.00743e-006
Heightened Def Con from 1.00743e-006 to 1.00743e-006
Heightened Def Con from 1.00743e-006 to 1.00755e-006
Heightened Def Con from 1.00756e-006 to 1.00757e-006
Heightened Def Con from 1.00757e-006 to 1.00757e-006
Heightened Def Con from 1.00757e-006 to 1.00757e-006
Heightened Def Con from 1.00758e-006 to 1.00758e-006
Heightened Def Con from 1.00758e-006 to 1.00758e-006
Heightened Def Con from 1.00758e-006 to 1.00758e-006
Heightened Def Con from 1.00758e-006 to 1.00758e-006
Heightened Def Con from 1.00758e-006 to 1.00758e-006
Heightened Def Con from 1.00758e-006 to 1.00758e-006
Heightened Def Con from 1.00758e-006 to 1.00758e-006
Heightened Def Con from 1.00758e-006 to 1.00758e-006
Heightened Def Con from 1.00758e-006 to 1.00758e-006
Heightened Def Con from 1.00758e-006 to 1.00758e-006
Heightened Def Con from 1.00758e-006 to 1.00758e-006
Heightened Def Con from 1.00758e-006 to 1.00758e-006
Heightened Def Con from 1.00758e-006 to 1.00758e-006
Heightened Def Con from 1.00758e-006 to 1.00758e-006
Heightened Def Con from 1.00758e-006 to 1.00758e-006
Heightened Def Con from 1.00758e-006 to 1.00758e-006
Heightened Def Con from 1.00758e-006 to 1.00758e-006
Heightened Def Con from 1.00758e-006 to 1.00758e-006
Heightened Def Con from 1.00758e-006 to 1.00758e-006
Heightened Def Con from 1.00758e-006 to 1.00758e-006
Heightened Def Con from 1.00758e-006 to 1.00758e-006
Heightened Def Con from 1.00758e-006 to 1.00758e-006
Heightened Def Con from 1.00758e-006 to 1.00758e-006
Heightened Def Con from 1.00758e-006 to 1.00758e-006
Heightened Def Con from 1.00758e-006 to 1.00758e-006
Heightened Def Con from 1.00758e-006 to 1.00758e-006
Heightened Def Con from 1.00758e-006 to 1.00758e-006
Heightened Def Con from 1.00758e-006 to 1.00758e-006
Heightened Def Con from 1.00758e-006 to 1.00758e-006
Heightened Def Con from 1.00758e-006 to 1.00758e-006
Heightened Def Con from 1.00758e-006 to 1.00758e-006
Heightened Def Con from 1.00758e-006 to 1.00758e-006
Heightened Def Con from 1.00758e-006 to 1.00758e-006
Heightened Def Con from 1.00758e-006 to 1.00758e-006
Heightened Def Con from 1.00758e-006 to 1.00758e-006
Heightened Def Con from 1.00758e-006 to 1.00758e-006
Heightened Def Con from 1.00758e-006 to 1.00758e-006
Heightened Def Con from 1.00758e-006 to 1.00758e-006
Heightened Def Con from 1.00758e-006 to 1.00771e-006
Heightened Def Con from 1.00771e-006 to 1.00771e-006
Heightened Def Con from 1.00771e-006 to 1.00771e-006
Heightened Def Con from 1.00771e-006 to 1.00771e-006
Heightened Def Con from 1.00771e-006 to 1.00771e-006
Heightened Def Con from 1.00771e-006 to 1.00771e-006
Heightened Def Con from 1.00771e-006 to 1.00771e-006
Heightened Def Con from 1.00771e-006 to 1.00771e-006
Heightened Def Con from 1.00771e-006 to 1.00771e-006
Heightened Def Con from 1.00771e-006 to 1.00771e-006
Heightened Def Con from 1.00771e-006 +to 1.00771e-006
Heightened Def Con from 1.00771e-006 to 1.00771e-006
Heightened Def Con from 1.00771e-006 to 1.00771e-006
Heightened Def Con from 1.00771e-006 to 1.00771e-006
Heightened Def Con from 1.00771e-006 to 1.00771e-006
Heightened Def Con from 1.00771e-006 to 1.00771e-006
Heightened Def Con from 1.00771e-006 to 1.00771e-006
Heightened Def Con from 1.00771e-006 to 1.00771e-006
Heightened Def Con from 1.00771e-006 to 1.00771e-006
Heightened Def Con from 1.00771e-006 to 1.00771e-006
Heightened Def Con from 1.00771e-006 to 1.00771e-006
Heightened Def Con from 1.00771e-006 to 1.00771e-006
Heightened Def Con from 1.00771e-006 to 1.00771e-006
Heightened Def Con from 1.00771e-006 to 1.00771e-006
Heightened Def Con from 1.00771e-006 to 1.00771e-006
Heightened Def Con from 1.00771e-006 to 1.00771e-006
Heightened Def Con from 1.00771e-006 to 1.00771e-006
Heightened Def Con from 1.00771e-006 to 1.00771e-006
Heightened Def Con from 1.00771e-006 to 1.00771e-006
Heightened Def Con from 1.00771e-006 to 1.00771e-006
Heightened Def Con from 1.00771e-006 to 1.00771e-006
Heightened Def Con from 1.00771e-006 +to 1.00771e-006
Heightened Def Con from 1.00771e-006 to 1.00771e-006
Heightened Def Con from 1.00771e-006 to 1.00771e-006
Heightened Def Con from 1.00771e-006 to 1.00771e-006
Heightened Def Con from 1.00771e-006 to 1.00771e-006
Heightened Def Con from 1.00771e-006 +to 1.00772e-006
Heightened Def Con from 1.00772e-006 to 1.00772e-006
Heightened Def Con from 1.00772e-006 to 1.00772e-006
Heightened Def Con from 1.00772e-006 to 1.00772e-006
Heightened Def Con from 1.00772e-006 to 1.00772e-006
Heightened Def Con from 1.00772e-006 to 1.00772e-006
Heightened Def Con from 1.00772e-006 to 1.00772e-006
Heightened Def Con from 1.00772e-006 +to 1.00772e-006
Heightened Def Con from 1.00772e-006 to 1.00772e-006
Heightened Def Con from 1.00772e-006 to 1.00772e-006
Heightened Def Con from 1.00772e-006 to 1.00872e-006
Heightened Def Con from 1.00872e-006 to 1.00873e-006
Heightened Def Con from 1.00873e-006 to 1.00873e-006
Heightened Def Con from 1.00873e-006 to 1.00873e-006
Heightened Def Con from 1.00874e-006 to 1.00874e-006
Heightened Def Con from 1.00874e-006 to 1.00874e-006
Heightened Def Con from 1.00874e-006 to 1.00874e-006
Heightened Def Con from 1.00874e-006 to 1.00874e-006
Heightened Def Con from 1.00874e-006 to 1.00874e-006
Heightened Def Con from 1.00874e-006 to 1.00874e-006
Heightened Def Con from 1.00874e-006 to 1.00874e-006
Heightened Def Con from 1.00874e-006 to 1.00874e-006
Heightened Def Con from 1.00874e-006 to 1.00874e-006
Heightened Def Con from 1.00874e-006 to 1.00874e-006
Heightened Def Con from 1.00874e-006 to 1.00874e-006
Heightened Def Con from 1.00874e-006 to 1.00874e-006
Heightened Def Con from 1.00874e-006 to 1.00874e-006
Heightened Def Con from 1.00874e-006 to 1.00874e-006
Heightened Def Con from 1.00874e-006 to 1.00874e-006
Heightened Def Con from 1.00874e-006 to 1.00874e-006
Heightened Def Con from 1.00874e-006 to 1.00875e-006
Heightened Def Con from 1.00875e-006 to 1.00875e-006
Heightened Def Con from 1.00875e-006 to 1.00876e-006
Heightened Def Con from 1.00876e-006 to 1.00876e-006
Heightened Def Con from 1.00876e-006 to 1.00876e-006
Heightened Def Con from 1.00876e-006 to 1.00876e-006
Heightened Def Con from 1.00876e-006 to 1.00876e-006
Heightened Def Con from 1.00876e-006 to 1.00876e-006
Heightened Def Con from 1.00876e-006 to 1.00876e-006
Heightened Def Con from 1.00876e-006 to 1.00876e-006
Heightened Def Con from 1.00876e-006 to 1.00876e-006
Heightened Def Con from 1.00876e-006 to 1.00876e-006
Heightened Def Con from 1.00876e-006 to 1.00876e-006
Heightened Def Con from 1.00876e-006 to 1.00876e-006
Heightened Def Con from 1.00876e-006 to 1.00876e-006
Heightened Def Con from 1.00876e-006 to 1.00876e-006
Heightened Def Con from 1.00876e-006 to 1.00876e-006
Heightened Def Con from 1.00876e-006 +to 1.00876e-006
Heightened Def Con from 1.00876e-006 to 1.00876e-006
Heightened Def Con from 1.00876e-006 to 1.00876e-006
Heightened Def Con from 1.00876e-006 to 1.00876e-006
Heightened Def Con from 1.00876e-006 +to 1.00876e-006
Heightened Def Con from 1.00876e-006 to 1.00876e-006
Heightened Def Con from 1.00876e-006 to 1.00876e-006
Heightened Def Con from 1.00876e-006 to 1.00876e-006
Heightened Def Con from 1.00877e-006 to 1.00877e-006
Heightened Def Con from 1.00877e-006 to 1.00877e-006
Heightened Def Con from 1.00877e-006 to 1.00877e-006
Heightened Def Con from 1.00877e-006 to 1.00889e-006
Heightened Def Con from 1.00889e-006 to 1.00889e-006
Heightened Def Con from 1.00889e-006 to 1.00889e-006
Heightened Def Con from 1.00889e-006 to 1.00889e-006
Heightened Def Con from 1.00889e-006 to 1.00889e-006
Heightened Def Con from 1.00889e-006 to 1.00891e-006
Heightened Def Con from 1.00891e-006 to 1.00891e-006
Heightened Def Con from 1.00891e-006 +to 1.00891e-006
Heightened Def Con from 1.00891e-006 to 1.00891e-006
Heightened Def Con from 1.00891e-006 to 1.00891e-006
Heightened Def Con from 1.00891e-006 to 1.00891e-006
Heightened Def Con from 1.00891e-006 to 1.00891e-006
Heightened Def Con from 1.00891e-006 to 1.00891e-006
Heightened Def Con from 1.00891e-006 to 1.00891e-006
Heightened Def Con from 1.00891e-006 to 1.00891e-006
Heightened Def Con from 1.00891e-006 to 1.00891e-006
Heightened Def Con from 1.00891e-006 to 1.00891e-006
Heightened Def Con from 1.00891e-006 +to 1.00891e-006
Heightened Def Con from 1.00891e-006 to 1.00891e-006
Heightened Def Con from 1.00892e-006 to 1.00892e-006
Heightened Def Con from 1.00892e-006 to 1.00892e-006
Heightened Def Con from 1.00892e-006 to 1.00892e-006
Heightened Def Con from 1.00892e-006 to 1.00892e-006
Heightened Def Con from 1.00892e-006 to 1.00892e-006
Heightened Def Con from 1.00892e-006 to 1.00892e-006
Heightened Def Con from 1.00892e-006 to 1.00892e-006
Heightened Def Con from 1.00892e-006 to 1.00892e-006
Heightened Def Con from 1.00892e-006 to 1.00892e-006
Heightened Def Con from 1.00892e-006 to 1.00892e-006
Heightened Def Con from 1.00892e-006 to 1.00892e-006
Heightened Def Con from 1.00892e-006 to 1.00892e-006
Heightened Def Con from 1.00892e-006 to 1.00892e-006
Heightened Def Con from 1.00892e-006 to 1.00892e-006
Heightened Def Con from 1.00892e-006 to 1.00892e-006
Heightened Def Con from 1.00892e-006 to 1.00892e-006
Heightened Def Con from 1.00892e-006 to 1.00892e-006
Heightened Def Con from 1.00892e-006 to 1.00892e-006
Heightened Def Con from 1.00892e-006 to 1.00892e-006
Heightened Def Con from 1.00892e-006 to 1.00892e-006
Heightened Def Con from 1.00892e-006 to 1.00892e-006
Heightened Def Con from 1.00892e-006 to 1.00892e-006
Heightened Def Con from 1.00892e-006 to 1.00892e-006
Heightened Def Con from 1.00892e-006 to 1.00892e-006
Heightened Def Con from 1.00892e-006 to 1.00892e-006
Heightened Def Con from 1.00892e-006 to 1.00892e-006
Heightened Def Con from 1.00892e-006 to 1.00892e-006
Heightened Def Con from 1.00892e-006 +to 1.00892e-006
Heightened Def Con from 1.00892e-006 to 1.00892e-006
Heightened Def Con from 1.00892e-006 to 1.00892e-006
Heightened Def Con from 1.00892e-006 to 1.00892e-006
Heightened Def Con from 1.00893e-006 to 1.00893e-006
Heightened Def Con from 1.00893e-006 to 1.00893e-006
Heightened Def Con from 1.00893e-006 to 1.00893e-006
Heightened Def Con from 1.00893e-006 to 1.00893e-006
Heightened Def Con from 1.00893e-006 to 1.00893e-006
Heightened Def Con from 1.00893e-006 to 1.00893e-006
Heightened Def Con from 1.00893e-006 to 1.00893e-006
Heightened Def Con from 1.00893e-006 to 1.00893e-006
Heightened Def Con from 1.00893e-006 to 1.00893e-006
Heightened Def Con from 1.00893e-006 to 1.00893e-006
Heightened Def Con from 1.00893e-006 to 1.00893e-006
Heightened Def Con from 1.00893e-006 to 1.00893e-006
Heightened Def Con from 1.00893e-006 to 1.00893e-006
Heightened Def Con from 1.00893e-006 to 1.00893e-006
Heightened Def Con from 1.00893e-006 to 1.00893e-006
Heightened Def Con from 1.00893e-006 to 1.00893e-006
Heightened Def Con from 1.00893e-006 to 1.00906e-006
Heightened Def Con from 1.00906e-006 to 1.00906e-006
Heightened Def Con from 1.00906e-006 to 1.00906e-006
Heightened Def Con from 1.00906e-006 to 1.00906e-006
Heightened Def Con from 1.00906e-006 to 1.00906e-006
Heightened Def Con from 1.00906e-006 to 1.00906e-006
Heightened Def Con from 1.00906e-006 to 1.00906e-006
Heightened Def Con from 1.00906e-006 to 1.00906e-006
Heightened Def Con from 1.00906e-006 to 1.00906e-006
Heightened Def Con from 1.00906e-006 to 1.00906e-006
Heightened Def Con from 1.00906e-006 to 1.00906e-006
Heightened Def Con from 1.00906e-006 to 1.00906e-006
Heightened Def Con from 1.00906e-006 to 1.00906e-006
Heightened Def Con from 1.00906e-006 to 1.00906e-006
Heightened Def Con from 1.00906e-006 to 1.00906e-006
Heightened Def Con from 1.00906e-006 to 1.00906e-006
Heightened Def Con from 1.00906e-006 to 1.01006e-006
Heightened Def Con from 1.01006e-006 to 1.01006e-006
Heightened Def Con from 1.01006e-006 to 1.01006e-006
Heightened Def Con from 1.01006e-006 to 1.01006e-006
Heightened Def Con from 1.01006e-006 to 1.01006e-006
Heightened Def Con from 1.01006e-006 to 1.01006e-006
Heightened Def Con from 1.01006e-006 to 1.01006e-006
Heightened Def Con from 1.01006e-006 to 1.01006e-006
Heightened Def Con from 1.01006e-006 to 1.01006e-006
Heightened Def Con from 1.01006e-006 to 1.01006e-006
Heightened Def Con from 1.01006e-006 to 1.01006e-006
Heightened Def Con from 1.01007e-006 to 1.01007e-006
Heightened Def Con from 1.01007e-006 to 1.01007e-006
Heightened Def Con from 1.01007e-006 to 1.01007e-006
Heightened Def Con from 1.01007e-006 to 1.01007e-006
Heightened Def Con from 1.01007e-006 to 1.01007e-006
Heightened Def Con from 1.01007e-006 to 1.01007e-006
Heightened Def Con from 1.01007e-006 to 1.01007e-006
Heightened Def Con from 1.01007e-006 to 1.01007e-006
Heightened Def Con from 1.01007e-006 to 1.01007e-006
Heightened Def Con from 1.01007e-006 to 1.01007e-006
Heightened Def Con from 1.01007e-006 to 1.01007e-006
Heightened Def Con from 1.01007e-006 to 1.01007e-006
Heightened Def Con from 1.01007e-006 to 1.01007e-006
Heightened Def Con from 1.01007e-006 to 1.01007e-006
Heightened Def Con from 1.01007e-006 to 1.01007e-006
Heightened Def Con from 1.01007e-006 to 1.01007e-006
Heightened Def Con from 1.01007e-006 to 1.01007e-006
Heightened Def Con from 1.01007e-006 to 1.01007e-006
Heightened Def Con from 1.01007e-006 to 1.01007e-006
Heightened Def Con from 1.01007e-006 to 1.01007e-006
Heightened Def Con from 1.01007e-006 to 1.01007e-006
Heightened Def Con from 1.01007e-006 to 1.01007e-006
Heightened Def Con from 1.01007e-006 to 1.01007e-006
Heightened Def Con from 1.01007e-006 to 1.01007e-006
Heightened Def Con from 1.01007e-006 to 1.01007e-006
Heightened Def Con from 1.01007e-006 to 1.01007e-006
Heightened Def Con from 1.01007e-006 to 1.01007e-006
Heightened Def Con from 1.01007e-006 to 1.01007e-006
Heightened Def Con from 1.01008e-006 to 1.0102e-006
Heightened Def Con from 1.0102e-006 to 1.0102e-006
Heightened Def Con from 1.0102e-006 to 1.0102e-006
Heightened Def Con from 1.0102e-006 to 1.0102e-006
Heightened Def Con from 1.0102e-006 to 1.0102e-006
Heightened Def Con from 1.0102e-006 to 1.0102e-006
Heightened Def Con from 1.0102e-006 to 1.0102e-006
Heightened Def Con from 1.0102e-006 to 1.0102e-006
Heightened Def Con from 1.0102e-006 to 1.0102e-006
Heightened Def Con from 1.0102e-006 to 1.0102e-006
Heightened Def Con from 1.0102e-006 to 1.0102e-006
Heightened Def Con from 1.0102e-006 to 1.0102e-006
Heightened Def Con from 1.0102e-006 to 1.0102e-006
Heightened Def Con from 1.01021e-006 to 1.01021e-006
Heightened Def Con from 1.01021e-006 to 1.01033e-006
Heightened Def Con from 1.01033e-006 +to 1.01033e-006
Heightened Def Con from 1.01033e-006 to 1.01033e-006
Heightened Def Con from 1.01033e-006 to 1.01033e-006
Heightened Def Con from 1.01033e-006 to 1.01033e-006
Heightened Def Con from 1.01033e-006 to 1.01033e-006
Heightened Def Con from 1.01033e-006 to 1.01033e-006
Heightened Def Con from 1.01033e-006 to 1.01033e-006
Heightened Def Con from 1.01033e-006 to 1.01033e-006
Heightened Def Con from 1.01033e-006 to 1.01033e-006
Heightened Def Con from 1.01033e-006 to 1.01046e-006
Heightened Def Con from 1.01046e-006 to 1.01046e-006
Heightened Def Con from 1.01046e-006 to 1.01046e-006
Heightened Def Con from 1.01046e-006 to 1.01046e-006
Heightened Def Con from 1.01046e-006 to 1.01046e-006
Heightened Def Con from 1.01046e-006 to 1.01046e-006
Heightened Def Con from 1.01046e-006 to 1.01046e-006
Heightened Def Con from 1.01046e-006 to 1.01046e-006
Heightened Def Con from 1.01046e-006 to 1.01046e-006
Heightened Def Con from 1.01046e-006 to 1.01046e-006
Heightened Def Con from 1.01046e-006 to 1.01048e-006
Heightened Def Con from 1.01048e-006 to 1.01048e-006
Heightened Def Con from 1.01048e-006 to 1.01048e-006
Heightened Def Con from 1.01048e-006 to 1.01048e-006
Heightened Def Con from 1.01048e-006 to 1.01048e-006
Heightened Def Con from 1.01048e-006 to 1.01048e-006
Heightened Def Con from 1.01048e-006 to 1.01048e-006
Heightened Def Con from 1.01048e-006 to 1.01048e-006
Heightened Def Con from 1.01048e-006 to 1.01048e-006
Heightened Def Con from 1.01048e-006 to 1.01048e-006
Heightened Def Con from 1.01048e-006 to 1.01048e-006
Heightened Def Con from 1.01048e-006 to 1.01048e-006
Heightened Def Con from 1.01048e-006 to 1.01048e-006
Heightened Def Con from 1.01048e-006 to 1.01048e-006
Heightened Def Con from 1.01048e-006 to 1.01048e-006
Heightened Def Con from 1.01048e-006 to 1.01048e-006
Heightened Def Con from 1.01048e-006 to 1.01048e-006
Heightened Def Con from 1.01048e-006 to 1.01048e-006
Heightened Def Con from 1.01048e-006 to 1.01048e-006
Heightened Def Con from 1.01048e-006 to 1.01048e-006
Heightened Def Con from 1.01048e-006 to 1.01048e-006
Heightened Def Con from 1.01048e-006 to 1.01048e-006
Heightened Def Con from 1.01048e-006 to 1.01048e-006
Heightened Def Con from 1.01048e-006 to 1.01048e-006
Heightened Def Con from 1.01048e-006 to 1.01048e-006
Heightened Def Con from 1.01048e-006 to 1.01048e-006
Heightened Def Con from 1.01048e-006 to 1.01061e-006
Heightened Def Con from 1.01061e-006 to 1.01061e-006
Heightened Def Con from 1.01061e-006 to 1.01061e-006
Heightened Def Con from 1.01061e-006 to 1.01061e-006
Heightened Def Con from 1.01061e-006 to 1.01061e-006
Heightened Def Con from 1.01061e-006 to 1.01061e-006
Heightened Def Con from 1.01061e-006 to 1.01061e-006
Heightened Def Con from 1.01061e-006 to 1.01161e-006
Heightened Def Con from 1.01161e-006 to 1.01161e-006
Heightened Def Con from 1.01161e-006 to 1.01161e-006
Heightened Def Con from 1.01161e-006 to 1.01161e-006
Heightened Def Con from 1.01161e-006 to 1.01161e-006
Heightened Def Con from 1.01161e-006 to 1.01161e-006
Heightened Def Con from 1.01161e-006 to 1.01161e-006
Heightened Def Con from 1.01162e-006 to 1.01162e-006
Heightened Def Con from 1.01162e-006 to 1.01162e-006
Heightened Def Con from 1.01162e-006 to 1.01162e-006
Heightened Def Con from 1.01162e-006 to 1.01162e-006
Heightened Def Con from 1.01162e-006 to 1.01162e-006
Heightened Def Con from 1.01162e-006 to 1.01162e-006
Heightened Def Con from 1.01162e-006 to 1.01162e-006
Heightened Def Con from 1.01162e-006 to 1.01162e-006
Heightened Def Con from 1.01162e-006 to 1.01162e-006
Heightened Def Con from 1.01162e-006 to 1.01162e-006
Heightened Def Con from 1.01162e-006 to 1.01162e-006
Heightened Def Con from 1.01162e-006 to 1.01162e-006
Heightened Def Con from 1.01162e-006 +to 1.01162e-006
Heightened Def Con from 1.01162e-006 to 1.01162e-006
Heightened Def Con from 1.01162e-006 to 1.01162e-006
Heightened Def Con from 1.01162e-006 to 1.01162e-006
Heightened Def Con from 1.01162e-006 to 1.01164e-006
Heightened Def Con from 1.01164e-006 to 1.01164e-006
Heightened Def Con from 1.01164e-006 to 1.01164e-006
Heightened Def Con from 1.01164e-006 to 1.01164e-006
Heightened Def Con from 1.01164e-006 to 1.01164e-006
Heightened Def Con from 1.01164e-006 to 1.01164e-006
Heightened Def Con from 1.01164e-006 to 1.01164e-006
Heightened Def Con from 1.01164e-006 to 1.01164e-006
Heightened Def Con from 1.01164e-006 to 1.01164e-006
Heightened Def Con from 1.01164e-006 to 1.01164e-006
Heightened Def Con from 1.01164e-006 to 1.01164e-006
Heightened Def Con from 1.01164e-006 to 1.01164e-006
Heightened Def Con from 1.01164e-006 to 1.01164e-006
Heightened Def Con from 1.01164e-006 to 1.01177e-006
Heightened Def Con from 1.01177e-006 to 1.01177e-006
Heightened Def Con from 1.01177e-006 to 1.01177e-006
Heightened Def Con from 1.01177e-006 to 1.01177e-006
Heightened Def Con from 1.01177e-006 to 1.01177e-006
Heightened Def Con from 1.01177e-006 +to 1.01177e-006
Heightened Def Con from 1.01177e-006 to 1.01177e-006
Heightened Def Con from 1.01177e-006 to 1.01177e-006
Heightened Def Con from 1.01177e-006 to 1.01177e-006
Heightened Def Con from 1.01177e-006 to 1.01189e-006
Heightened Def Con from 1.01189e-006 to 1.01189e-006
Heightened Def Con from 1.01189e-006 to 1.01189e-006
Heightened Def Con from 1.01189e-006 to 1.01189e-006
Heightened Def Con from 1.01189e-006 to 1.01189e-006
Heightened Def Con from 1.01189e-006 to 1.01189e-006
Heightened Def Con from 1.0119e-006 to 1.0119e-006
Heightened Def Con from 1.0119e-006 to 1.0119e-006
Heightened Def Con from 1.0119e-006 to 1.0119e-006
Heightened Def Con from 1.0119e-006 to 1.01193e-006
Heightened Def Con from 1.01193e-006 to 1.01194e-006
Heightened Def Con from 1.01194e-006 to 1.01194e-006
Heightened Def Con from 1.01194e-006 to 1.01194e-006
Heightened Def Con from 1.01194e-006 to 1.01194e-006
Heightened Def Con from 1.01194e-006 to 1.01194e-006
Heightened Def Con from 1.01194e-006 to 1.01194e-006
Heightened Def Con from 1.01195e-006 to 1.01195e-006
Heightened Def Con from 1.01195e-006 to 1.01195e-006
Heightened Def Con from 1.01195e-006 to 1.01195e-006
Heightened Def Con from 1.01195e-006 to 1.01195e-006
Heightened Def Con from 1.01195e-006 to 1.01195e-006
Heightened Def Con from 1.01195e-006 to 1.01195e-006
Heightened Def Con from 1.01195e-006 to 1.01195e-006
Heightened Def Con from 1.01195e-006 to 1.01195e-006
Heightened Def Con from 1.01195e-006 to 1.01195e-006
Heightened Def Con from 1.01195e-006 to 1.01195e-006
Heightened Def Con from 1.01195e-006 to 1.01195e-006
Heightened Def Con from 1.01195e-006 to 1.01195e-006
Heightened Def Con from 1.01195e-006 to 1.01195e-006
Heightened Def Con from 1.01195e-006 to 1.01195e-006
Heightened Def Con from 1.01195e-006 to 1.01195e-006
Heightened Def Con from 1.01195e-006 to 1.01195e-006
Heightened Def Con from 1.01195e-006 to 1.01195e-006
Heightened Def Con from 1.01195e-006 to 1.01195e-006
Heightened Def Con from 1.01195e-006 to 1.01195e-006
Heightened Def Con from 1.01195e-006 to 1.01195e-006
Heightened Def Con from 1.01195e-006 to 1.01195e-006
Heightened Def Con from 1.01195e-006 to 1.01195e-006
Heightened Def Con from 1.01195e-006 to 1.01295e-006
Heightened Def Con from 1.01295e-006 to 1.01295e-006
Heightened Def Con from 1.01295e-006 to 1.01295e-006
Heightened Def Con from 1.01295e-006 to 1.01295e-006
Heightened Def Con from 1.01295e-006 to 1.01295e-006
Heightened Def Con from 1.01295e-006 to 1.01295e-006
Heightened Def Con from 1.01295e-006 to 1.01295e-006
Heightened Def Con from 1.01295e-006 to 1.01295e-006
Heightened Def Con from 1.01295e-006 to 1.01295e-006
Heightened Def Con from 1.01295e-006 to 1.01295e-006
Heightened Def Con from 1.01295e-006 to 1.01295e-006
Heightened Def Con from 1.01295e-006 to 1.01295e-006
Heightened Def Con from 1.01296e-006 to 1.01296e-006
Heightened Def Con from 1.01296e-006 to 1.01296e-006
Heightened Def Con from 1.01296e-006 to 1.01296e-006
Heightened Def Con from 1.01296e-006 to 1.01296e-006
Heightened Def Con from 1.01296e-006 to 1.01296e-006
Heightened Def Con from 1.01296e-006 to 1.01296e-006
Heightened Def Con from 1.01296e-006 to 1.01296e-006
Heightened Def Con from 1.01296e-006 to 1.01296e-006
Heightened Def Con from 1.01296e-006 to 1.01296e-006
Heightened Def Con from 1.01296e-006 to 1.01296e-006
Heightened Def Con from 1.01296e-006 to 1.01296e-006
Heightened Def Con from 1.01296e-006 +to 1.01296e-006
Heightened Def Con from 1.01296e-006 to 1.01296e-006
Heightened Def Con from 1.01296e-006 to 1.01297e-006
Heightened Def Con from 1.01297e-006 to 1.01297e-006
Heightened Def Con from 1.01297e-006 +to 1.01297e-006
Heightened Def Con from 1.01297e-006 to 1.01297e-006
Heightened Def Con from 1.01297e-006 to 1.01297e-006
Heightened Def Con from 1.01297e-006 to 1.01297e-006
Heightened Def Con from 1.01297e-006 to 1.01298e-006
Heightened Def Con from 1.01298e-006 to 1.01298e-006
Heightened Def Con from 1.01298e-006 to 1.01298e-006
Heightened Def Con from 1.01298e-006 to 1.01298e-006
Heightened Def Con from 1.01298e-006 to 1.01298e-006
Heightened Def Con from 1.01298e-006 to 1.01298e-006
Heightened Def Con from 1.01298e-006 to 1.01298e-006
Heightened Def Con from 1.01298e-006 to 1.01298e-006
Heightened Def Con from 1.01298e-006 to 1.01298e-006
Heightened Def Con from 1.01298e-006 to 1.01298e-006
Heightened Def Con from 1.01298e-006 to 1.01298e-006
Heightened Def Con from 1.01298e-006 to 1.01298e-006
Heightened Def Con from 1.01298e-006 to 1.01298e-006
Heightened Def Con from 1.01298e-006 to 1.01298e-006
Heightened Def Con from 1.01298e-006 to 1.01298e-006
Heightened Def Con from 1.01298e-006 to 1.01298e-006
Heightened Def Con from 1.01298e-006 to 1.01298e-006
Heightened Def Con from 1.01298e-006 to 1.01298e-006
Heightened Def Con from 1.01298e-006 to 1.01298e-006
Heightened Def Con from 1.01298e-006 to 1.01298e-006
Heightened Def Con from 1.01298e-006 to 1.01298e-006
Heightened Def Con from 1.01298e-006 to 1.01298e-006
Heightened Def Con from 1.01298e-006 to 1.01298e-006
Heightened Def Con from 1.01298e-006 to 1.01298e-006
Heightened Def Con from 1.01298e-006 to 1.01298e-006
Heightened Def Con from 1.01298e-006 to 1.01298e-006
Heightened Def Con from 1.01298e-006 to 1.01298e-006
Heightened Def Con from 1.01298e-006 +to 1.01298e-006
Heightened Def Con from 1.01298e-006 to 1.01298e-006
Heightened Def Con from 1.01298e-006 to 1.01298e-006
Heightened Def Con from 1.01298e-006 to 1.01298e-006
Heightened Def Con from 1.01298e-006 to 1.01298e-006
Heightened Def Con from 1.01298e-006 to 1.01298e-006
Heightened Def Con from 1.01298e-006 to 1.01298e-006
Heightened Def Con from 1.01298e-006 to 1.01298e-006
Heightened Def Con from 1.01298e-006 to 1.01298e-006
Heightened Def Con from 1.01298e-006 to 1.01298e-006
Heightened Def Con from 1.01298e-006 to 1.01298e-006
Heightened Def Con from 1.01298e-006 to 1.01298e-006
Heightened Def Con from 1.01298e-006 to 1.01299e-006
Heightened Def Con from 1.01299e-006 to 1.01299e-006
Heightened Def Con from 1.01299e-006 to 1.01299e-006
Heightened Def Con from 1.01299e-006 to 1.01299e-006
Heightened Def Con from 1.01299e-006 to 1.01299e-006
Heightened Def Con from 1.01299e-006 to 1.01299e-006
Heightened Def Con from 1.01299e-006 to 1.01299e-006
Heightened Def Con from 1.01299e-006 to 1.01299e-006
Heightened Def Con from 1.01299e-006 to 1.01299e-006
Heightened Def Con from 1.01299e-006 to 1.013e-006
Heightened Def Con from 1.01301e-006 to 1.01301e-006
Heightened Def Con from 1.01301e-006 to 1.01301e-006
Heightened Def Con from 1.01301e-006 to 1.01301e-006
Heightened Def Con from 1.01301e-006 to 1.01301e-006
Heightened Def Con from 1.01301e-006 to 1.01301e-006
Heightened Def Con from 1.01301e-006 to 1.01301e-006
Heightened Def Con from 1.01301e-006 to 1.01301e-006
Heightened Def Con from 1.01301e-006 to 1.01301e-006
Heightened Def Con from 1.01301e-006 to 1.01301e-006
Heightened Def Con from 1.01301e-006 to 1.01301e-006
Heightened Def Con from 1.01301e-006 to 1.01301e-006
Heightened Def Con from 1.01301e-006 to 1.01301e-006
Heightened Def Con from 1.01301e-006 to 1.01301e-006
Heightened Def Con from 1.01301e-006 to 1.01301e-006
Heightened Def Con from 1.01301e-006 to 1.01301e-006
Heightened Def Con from 1.01301e-006 to 1.01301e-006
Heightened Def Con from 1.01301e-006 to 1.01301e-006
Heightened Def Con from 1.01301e-006 to 1.01301e-006
Heightened Def Con from 1.01301e-006 to 1.01301e-006
Heightened Def Con from 1.01301e-006 to 1.01301e-006
Heightened Def Con from 1.01301e-006 to 1.01301e-006
Heightened Def Con from 1.01301e-006 to 1.01301e-006
Heightened Def Con from 1.01301e-006 to 1.01301e-006
Heightened Def Con from 1.01301e-006 to 1.01301e-006
Heightened Def Con from 1.01301e-006 +to 1.01301e-006
Heightened Def Con from 1.01301e-006 to 1.01301e-006
Heightened Def Con from 1.01301e-006 to 1.01301e-006
Heightened Def Con from 1.01301e-006 to 1.01301e-006
Heightened Def Con from 1.01301e-006 to 1.01301e-006
Heightened Def Con from 1.01301e-006 to 1.01301e-006
Heightened Def Con from 1.01301e-006 to 1.01301e-006
Heightened Def Con from 1.01301e-006 to 1.01301e-006
Heightened Def Con from 1.01301e-006 to 1.01301e-006
Heightened Def Con from 1.01301e-006 to 1.01301e-006
Heightened Def Con from 1.01301e-006 to 1.01301e-006
Heightened Def Con from 1.01301e-006 to 1.01301e-006
Heightened Def Con from 1.01301e-006 to 1.01301e-006
Heightened Def Con from 1.01301e-006 to 1.01301e-006
Heightened Def Con from 1.01301e-006 +to 1.01301e-006
Heightened Def Con from 1.01301e-006 to 1.01301e-006
Heightened Def Con from 1.01301e-006 to 1.01301e-006
Heightened Def Con from 1.01301e-006 to 1.01301e-006
Heightened Def Con from 1.01301e-006 to 1.01301e-006
Heightened Def Con from 1.01301e-006 to 1.01301e-006
Heightened Def Con from 1.01301e-006 to 1.01301e-006
Heightened Def Con from 1.01301e-006 to 1.01302e-006
Heightened Def Con from 1.01302e-006 to 1.01302e-006
Heightened Def Con from 1.01302e-006 +to 1.01302e-006
Heightened Def Con from 1.01302e-006 to 1.01302e-006
Heightened Def Con from 1.01302e-006 to 1.01302e-006
Heightened Def Con from 1.01302e-006 to 1.01302e-006
Heightened Def Con from 1.01302e-006 to 1.01303e-006
Heightened Def Con from 1.01303e-006 to 1.01303e-006
Heightened Def Con from 1.01303e-006 to 1.01303e-006
Heightened Def Con from 1.01303e-006 to 1.01303e-006
Heightened Def Con from 1.01303e-006 to 1.01303e-006
Heightened Def Con from 1.01303e-006 to 1.01303e-006
Heightened Def Con from 1.01303e-006 to 1.01303e-006
Heightened Def Con from 1.01303e-006 to 1.01303e-006
Heightened Def Con from 1.01303e-006 to 1.01303e-006
Heightened Def Con from 1.01303e-006 to 1.01303e-006
Heightened Def Con from 1.01303e-006 to 1.01303e-006
Heightened Def Con from 1.01303e-006 to 1.01303e-006
Heightened Def Con from 1.01304e-006 to 1.01304e-006
Heightened Def Con from 1.01304e-006 to 1.01304e-006
Heightened Def Con from 1.01304e-006 to 1.01304e-006
Heightened Def Con from 1.01304e-006 to 1.01304e-006
Heightened Def Con from 1.01304e-006 to 1.01304e-006
Heightened Def Con from 1.01304e-006 to 1.01304e-006
Heightened Def Con from 1.01304e-006 to 1.01304e-006
Heightened Def Con from 1.01304e-006 to 1.01304e-006
Heightened Def Con from 1.01304e-006 to 1.01304e-006
Heightened Def Con from 1.01304e-006 to 1.01304e-006
Heightened Def Con from 1.01304e-006 to 1.01304e-006
Heightened Def Con from 1.01304e-006 to 1.01304e-006
Heightened Def Con from 1.01304e-006 to 1.01304e-006
Heightened Def Con from 1.01304e-006 to 1.01304e-006
Heightened Def Con from 1.01304e-006 to 1.01304e-006
Heightened Def Con from 1.01304e-006 to 1.01304e-006
Heightened Def Con from 1.01304e-006 to 1.01304e-006
Heightened Def Con from 1.01304e-006 to 1.01304e-006
Heightened Def Con from 1.01304e-006 to 1.01304e-006
Heightened Def Con from 1.01304e-006 to 1.01304e-006
Heightened Def Con from 1.01304e-006 to 1.01304e-006
Heightened Def Con from 1.01304e-006 to 1.01304e-006
Heightened Def Con from 1.01304e-006 to 1.01304e-006
Heightened Def Con from 1.01304e-006 to 1.01304e-006
Heightened Def Con from 1.01304e-006 to 1.01304e-006
Heightened Def Con from 1.01304e-006 to 1.01304e-006
Heightened Def Con from 1.01304e-006 to 1.01304e-006
Heightened Def Con from 1.01304e-006 to 1.01304e-006
Heightened Def Con from 1.01304e-006 to 1.01304e-006
Heightened Def Con from 1.01304e-006 to 1.01304e-006
Heightened Def Con from 1.01304e-006 to 1.01304e-006
Heightened Def Con from 1.01304e-006 to 1.01304e-006
Heightened Def Con from 1.01304e-006 to 1.01304e-006
Heightened Def Con from 1.01304e-006 to 1.01305e-006
Heightened Def Con from 1.01305e-006 to 1.01305e-006
Heightened Def Con from 1.01305e-006 to 1.01305e-006
Heightened Def Con from 1.01305e-006 to 1.01305e-006
Heightened Def Con from 1.01305e-006 to 1.01305e-006
Heightened Def Con from 1.01305e-006 to 1.01305e-006
Heightened Def Con from 1.01305e-006 to 1.01305e-006
Heightened Def Con from 1.01305e-006 to 1.01305e-006
Heightened Def Con from 1.01305e-006 to 1.01305e-006
Heightened Def Con from 1.01305e-006 to 1.01305e-006
Heightened Def Con from 1.01305e-006 to 1.01305e-006
Heightened Def Con from 1.01305e-006 to 1.01305e-006
Heightened Def Con from 1.01305e-006 to 1.01305e-006
Heightened Def Con from 1.01305e-006 to 1.01305e-006
Heightened Def Con from 1.01305e-006 to 1.01305e-006
Heightened Def Con from 1.01305e-006 to 1.01305e-006
Heightened Def Con from 1.01305e-006 to 1.01305e-006
Heightened Def Con from 1.01305e-006 to 1.01305e-006
Heightened Def Con from 1.01305e-006 to 1.01305e-006
Heightened Def Con from 1.01305e-006 to 1.01305e-006
Heightened Def Con from 1.01305e-006 +to 1.01305e-006
Heightened Def Con from 1.01305e-006 to 1.01305e-006
Heightened Def Con from 1.01305e-006 to 1.01305e-006
Heightened Def Con from 1.01305e-006 to 1.01305e-006
Heightened Def Con from 1.01305e-006 to 1.01305e-006
Heightened Def Con from 1.01305e-006 to 1.01305e-006
Heightened Def Con from 1.01305e-006 to 1.01305e-006
Heightened Def Con from 1.01305e-006 to 1.01305e-006
Heightened Def Con from 1.01305e-006 to 1.01305e-006
Heightened Def Con from 1.01305e-006 to 1.01305e-006
Heightened Def Con from 1.01305e-006 to 1.01305e-006
Heightened Def Con from 1.01305e-006 to 1.01305e-006
Heightened Def Con from 1.01305e-006 to 1.01305e-006
Heightened Def Con from 1.01305e-006 to 1.01305e-006
Heightened Def Con from 1.01305e-006 to 1.01305e-006
Heightened Def Con from 1.01305e-006 to 1.01305e-006
Heightened Def Con from 1.01305e-006 +to 1.01305e-006
Heightened Def Con from 1.01305e-006 to 1.01305e-006
Heightened Def Con from 1.01305e-006 to 1.01305e-006
Heightened Def Con from 1.01305e-006 to 1.01305e-006
Heightened Def Con from 1.01305e-006 to 1.01305e-006
Heightened Def Con from 1.01305e-006 to 1.01305e-006
Heightened Def Con from 1.01305e-006 to 1.01305e-006
Heightened Def Con from 1.01305e-006 to 1.01305e-006
Heightened Def Con from 1.01305e-006 to 1.01305e-006
Heightened Def Con from 1.01305e-006 to 1.01305e-006
Heightened Def Con from 1.01305e-006 to 1.01305e-006
Heightened Def Con from 1.01305e-006 to 1.01305e-006
Heightened Def Con from 1.01305e-006 to 1.01307e-006
Heightened Def Con from 1.01307e-006 to 1.01307e-006
Heightened Def Con from 1.01307e-006 to 1.01307e-006
Heightened Def Con from 1.01307e-006 to 1.01307e-006
Heightened Def Con from 1.01307e-006 to 1.01307e-006
Heightened Def Con from 1.01307e-006 to 1.01307e-006
Heightened Def Con from 1.01307e-006 to 1.01307e-006
Heightened Def Con from 1.01307e-006 to 1.01307e-006
Heightened Def Con from 1.01307e-006 to 1.01307e-006
Heightened Def Con from 1.01307e-006 to 1.01307e-006
Heightened Def Con from 1.01307e-006 to 1.01307e-006
Heightened Def Con from 1.01307e-006 to 1.01307e-006
Heightened Def Con from 1.01307e-006 to 1.01307e-006
Heightened Def Con from 1.01307e-006 to 1.01307e-006
Heightened Def Con from 1.01307e-006 to 1.01307e-006
Heightened Def Con from 1.01307e-006 to 1.01307e-006
Heightened Def Con from 1.01307e-006 to 1.01307e-006
Heightened Def Con from 1.01307e-006 to 1.01307e-006
Heightened Def Con from 1.01307e-006 to 1.01307e-006
Heightened Def Con from 1.01307e-006 to 1.01307e-006
Heightened Def Con from 1.01307e-006 to 1.01307e-006
Heightened Def Con from 1.01308e-006 to 1.01308e-006
Heightened Def Con from 1.01308e-006 to 1.01308e-006
Heightened Def Con from 1.01308e-006 to 1.01308e-006
Heightened Def Con from 1.01308e-006 to 1.01308e-006
Heightened Def Con from 1.01308e-006 to 1.01308e-006
Heightened Def Con from 1.01308e-006 to 1.01308e-006
Heightened Def Con from 1.01308e-006 to 1.01308e-006
Heightened Def Con from 1.01308e-006 to 1.01308e-006
Heightened Def Con from 1.01308e-006 to 1.01308e-006
Heightened Def Con from 1.01308e-006 to 1.01308e-006
Heightened Def Con from 1.01308e-006 to 1.01308e-006
Heightened Def Con from 1.01308e-006 to 1.01308e-006
Heightened Def Con from 1.01308e-006 to 1.01308e-006
Heightened Def Con from 1.01308e-006 to 1.01308e-006
Heightened Def Con from 1.01308e-006 to 1.01308e-006
Heightened Def Con from 1.01308e-006 to 1.01308e-006
Heightened Def Con from 1.01308e-006 to 1.01308e-006
Heightened Def Con from 1.01308e-006 to 1.01308e-006
Heightened Def Con from 1.01308e-006 to 1.01308e-006
Heightened Def Con from 1.01308e-006 to 1.01308e-006
Heightened Def Con from 1.01308e-006 to 1.01308e-006
Heightened Def Con from 1.01308e-006 to 1.01308e-006
Heightened Def Con from 1.01308e-006 to 1.01308e-006
Heightened Def Con from 1.01308e-006 to 1.01308e-006
Heightened Def Con from 1.01308e-006 +to 1.01308e-006
Heightened Def Con from 1.01308e-006 to 1.01308e-006
Heightened Def Con from 1.01308e-006 to 1.01308e-006
Heightened Def Con from 1.01308e-006 to 1.01308e-006
Heightened Def Con from 1.01308e-006 to 1.01308e-006
Heightened Def Con from 1.01308e-006 to 1.01308e-006
Heightened Def Con from 1.01308e-006 to 1.01308e-006
Heightened Def Con from 1.01308e-006 to 1.01308e-006
Heightened Def Con from 1.01308e-006 to 1.01308e-006
Heightened Def Con from 1.01308e-006 to 1.01308e-006
Heightened Def Con from 1.01308e-006 to 1.01308e-006
Heightened Def Con from 1.01308e-006 to 1.01308e-006
Heightened Def Con from 1.01308e-006 to 1.01308e-006
Heightened Def Con from 1.01308e-006 to 1.01308e-006
Heightened Def Con from 1.01308e-006 to 1.01308e-006
Heightened Def Con from 1.01308e-006 to 1.01308e-006
Heightened Def Con from 1.01308e-006 to 1.01308e-006
Heightened Def Con from 1.01308e-006 to 1.01308e-006
Heightened Def Con from 1.01308e-006 to 1.01308e-006
Heightened Def Con from 1.01308e-006 to 1.01308e-006
Heightened Def Con from 1.01308e-006 to 1.01308e-006
Heightened Def Con from 1.01308e-006 to 1.01308e-006
Heightened Def Con from 1.01308e-006 to 1.01308e-006
Heightened Def Con from 1.01308e-006 to 1.01308e-006
Heightened Def Con from 1.01308e-006 to 1.01308e-006
Heightened Def Con from 1.01308e-006 to 1.01308e-006
Heightened Def Con from 1.01308e-006 to 1.01308e-006
Heightened Def Con from 1.01308e-006 to 1.01308e-006
Heightened Def Con from 1.01308e-006 to 1.01308e-006
Heightened Def Con from 1.01309e-006 to 1.01309e-006
Heightened Def Con from 1.01309e-006 to 1.01309e-006
Heightened Def Con from 1.01309e-006 to 1.01309e-006
Heightened Def Con from 1.01309e-006 to 1.01309e-006
Heightened Def Con from 1.01309e-006 to 1.01309e-006
Heightened Def Con from 1.01309e-006 to 1.01309e-006
Heightened Def Con from 1.01309e-006 to 1.0131e-006
Heightened Def Con from 1.0131e-006 to 1.0131e-006
Heightened Def Con from 1.0131e-006 to 1.0131e-006
Heightened Def Con from 1.0131e-006 to 1.0131e-006
Heightened Def Con from 1.0131e-006 to 1.0131e-006
Heightened Def Con from 1.0131e-006 to 1.0131e-006
Heightened Def Con from 1.0131e-006 to 1.0131e-006
Heightened Def Con from 1.0131e-006 to 1.0131e-006
Heightened Def Con from 1.0131e-006 to 1.0131e-006
Heightened Def Con from 1.01311e-006 to 1.01311e-006
Heightened Def Con from 1.01311e-006 to 1.01311e-006
Heightened Def Con from 1.01311e-006 to 1.01311e-006
Heightened Def Con from 1.01311e-006 to 1.01311e-006
Heightened Def Con from 1.01311e-006 to 1.01311e-006
Heightened Def Con from 1.01311e-006 to 1.01311e-006
Heightened Def Con from 1.01311e-006 to 1.01311e-006
Heightened Def Con from 1.01311e-006 to 1.01311e-006
Heightened Def Con from 1.01311e-006 to 1.01311e-006
Heightened Def Con from 1.01311e-006 to 1.01311e-006
Heightened Def Con from 1.01311e-006 to 1.01311e-006
Heightened Def Con from 1.01311e-006 to 1.01311e-006
Heightened Def Con from 1.01311e-006 to 1.01311e-006
Heightened Def Con from 1.01311e-006 +to 1.01311e-006
Heightened Def Con from 1.01311e-006 +to 1.01311e-006
Heightened Def Con from 1.01311e-006 to 1.01311e-006
Heightened Def Con from 1.01311e-006 to 1.01311e-006
Heightened Def Con from 1.01311e-006 to 1.01311e-006
Heightened Def Con from 1.01311e-006 to 1.01311e-006
Heightened Def Con from 1.01311e-006 to 1.01311e-006
Heightened Def Con from 1.01311e-006 to 1.01311e-006
Heightened Def Con from 1.01311e-006 to 1.01311e-006
Heightened Def Con from 1.01311e-006 to 1.01311e-006
Heightened Def Con from 1.01311e-006 to 1.01311e-006
Heightened Def Con from 1.01311e-006 to 1.01311e-006
Heightened Def Con from 1.01311e-006 to 1.01311e-006
Heightened Def Con from 1.01311e-006 +to 1.01311e-006
Heightened Def Con from 1.01311e-006 to 1.01311e-006
Heightened Def Con from 1.01311e-006 to 1.01311e-006
Heightened Def Con from 1.01311e-006 to 1.01311e-006
Heightened Def Con from 1.01311e-006 to 1.01311e-006
Heightened Def Con from 1.01311e-006 to 1.01311e-006
Heightened Def Con from 1.01311e-006 to 1.01311e-006
Heightened Def Con from 1.01311e-006 to 1.01311e-006
Heightened Def Con from 1.01311e-006 to 1.01311e-006
Heightened Def Con from 1.01311e-006 to 1.01311e-006
Heightened Def Con from 1.01311e-006 to 1.01311e-006
Heightened Def Con from 1.01311e-006 to 1.01311e-006
Heightened Def Con from 1.01311e-006 to 1.01311e-006
Heightened Def Con from 1.01311e-006 +to 1.01311e-006
Heightened Def Con from 1.01311e-006 to 1.01311e-006
Heightened Def Con from 1.01311e-006 to 1.01311e-006
Heightened Def Con from 1.01311e-006 to 1.01312e-006
Heightened Def Con from 1.01312e-006 to 1.01312e-006
Heightened Def Con from 1.01312e-006 to 1.01312e-006
Heightened Def Con from 1.01312e-006 to 1.01312e-006
Heightened Def Con from 1.01312e-006 to 1.01312e-006
Heightened Def Con from 1.01312e-006 to 1.01312e-006
Heightened Def Con from 1.01312e-006 to 1.01312e-006
Heightened Def Con from 1.01312e-006 to 1.01312e-006
Heightened Def Con from 1.01312e-006 to 1.01312e-006
Heightened Def Con from 1.01312e-006 to 1.01312e-006
Heightened Def Con from 1.01312e-006 to 1.01312e-006
Heightened Def Con from 1.01312e-006 to 1.01312e-006
Heightened Def Con from 1.01312e-006 to 1.01312e-006
Heightened Def Con from 1.01312e-006 to 1.01312e-006
Heightened Def Con from 1.01312e-006 to 1.01312e-006
Heightened Def Con from 1.01312e-006 to 1.01312e-006
Heightened Def Con from 1.01312e-006 to 1.01312e-006
Heightened Def Con from 1.01312e-006 to 1.01312e-006
Heightened Def Con from 1.01312e-006 to 1.01312e-006
Heightened Def Con from 1.01312e-006 to 1.01312e-006
Heightened Def Con from 1.01312e-006 to 1.01312e-006
Heightened Def Con from 1.01312e-006 +to 1.01312e-006
Heightened Def Con from 1.01312e-006 to 1.01312e-006
Heightened Def Con from 1.01312e-006 to 1.01312e-006
Heightened Def Con from 1.01312e-006 to 1.01312e-006
Heightened Def Con from 1.01312e-006 to 1.01312e-006
Heightened Def Con from 1.01312e-006 to 1.01312e-006
Heightened Def Con from 1.01312e-006 to 1.01312e-006
Heightened Def Con from 1.01312e-006 to 1.01312e-006
Heightened Def Con from 1.01312e-006 to 1.01312e-006
Heightened Def Con from 1.01312e-006 to 1.01312e-006
Heightened Def Con from 1.01312e-006 to 1.01312e-006
Heightened Def Con from 1.01312e-006 to 1.01312e-006
Heightened Def Con from 1.01312e-006 to 1.01312e-006
Heightened Def Con from 1.01312e-006 to 1.01312e-006
Heightened Def Con from 1.01312e-006 to 1.01312e-006
Heightened Def Con from 1.01312e-006 to 1.01312e-006
Heightened Def Con from 1.01312e-006 to 1.01312e-006
Heightened Def Con from 1.01312e-006 to 1.01312e-006
Heightened Def Con from 1.01312e-006 to 1.01312e-006
Heightened Def Con from 1.01312e-006 to 1.01312e-006
Heightened Def Con from 1.01312e-006 to 1.01312e-006
Heightened Def Con from 1.01312e-006 to 1.01312e-006
Heightened Def Con from 1.01312e-006 to 1.01312e-006
Heightened Def Con from 1.01312e-006 to 1.01312e-006
Heightened Def Con from 1.01312e-006 to 1.01312e-006
Heightened Def Con from 1.01312e-006 to 1.01312e-006
Heightened Def Con from 1.01312e-006 to 1.01312e-006
Heightened Def Con from 1.01312e-006 to 1.01312e-006
Heightened Def Con from 1.01312e-006 to 1.01312e-006
Heightened Def Con from 1.01312e-006 to 1.01312e-006
Heightened Def Con from 1.01312e-006 to 1.01312e-006
Heightened Def Con from 1.01312e-006 to 1.01312e-006
Heightened Def Con from 1.01312e-006 to 1.01312e-006
Heightened Def Con from 1.01312e-006 to 1.01312e-006
Heightened Def Con from 1.01312e-006 to 1.01412e-006
Heightened Def Con from 1.01412e-006 to 1.01412e-006
Heightened Def Con from 1.01412e-006 to 1.01412e-006
Heightened Def Con from 1.01412e-006 to 1.01412e-006
Heightened Def Con from 1.01412e-006 to 1.01412e-006
Heightened Def Con from 1.01413e-006 to 1.01413e-006
Heightened Def Con from 1.01413e-006 to 1.01413e-006
Heightened Def Con from 1.01413e-006 to 1.01413e-006
Heightened Def Con from 1.01413e-006 to 1.01413e-006
Heightened Def Con from 1.01413e-006 to 1.01413e-006
Heightened Def Con from 1.01413e-006 to 1.01413e-006
Heightened Def Con from 1.01413e-006 to 1.01413e-006
[...]
Heightened Def Con from 1.05845e-006 to 1.05845e-006
Heightened Def Con from 1.05845e-006 to 1.05845e-006
Heightened Def Con from 1.05845e-006 to 1.05857e-006
Heightened Def Con from 1.05857e-006 to 1.05857e-006
Heightened Def Con from 1.05857e-006 to 1.05857e-006
Heightened Def Con from 1.05857e-006 to 1.05857e-006
Heightened Def Con from 1.05857e-006 to 1.05857e-006
Heightened Def Con from 1.05857e-006 to 1.05857e-006
Heightened Def Con from 1.05857e-006 to 1.05857e-006
Heightened Def Con from 1.05857e-006 to 1.05857e-006
Heightened Def Con from 1.05857e-006 to 1.05857e-006
Heightened Def Con from 1.05857e-006 to 1.05857e-006
Heightened Def Con from 1.05857e-006 to 1.05857e-006
Heightened Def Con from 1.05857e-006 to 1.05859e-006
Heightened Def Con from 1.05859e-006 to 1.05859e-006
Heightened Def Con from 1.05859e-006 to 1.05859e-006
Heightened Def Con from 1.05859e-006 +to 1.05859e-006
Heightened Def Con from 1.05859e-006 to 1.05859e-006
Heightened Def Con from 1.05859e-006 to 1.05859e-006
Heightened Def Con from 1.05859e-006 to 1.05859e-006
Heightened Def Con from 1.05859e-006 to 1.05859e-006
Heightened Def Con from 1.05859e-006 to 1.05859e-006
Heightened Def Con from 1.0586e-006 to 1.0586e-006
Heightened Def Con from 1.0586e-006 to 1.0586e-006
Heightened Def Con from 1.0586e-006 to 1.0586e-006
Heightened Def Con from 1.0586e-006 to 1.0586e-006
Heightened Def Con from 1.0586e-006 to 1.0586e-006
Heightened Def Con from 1.0586e-006 to 1.0586e-006
Heightened Def Con from 1.0586e-006 to 1.0586e-006
Heightened Def Con from 1.0586e-006 to 1.0586e-006
Heightened Def Con from 1.0586e-006 to 1.0586e-006
Heightened Def Con from 1.0586e-006 to 1.0586e-006
Heightened Def Con from 1.0586e-006 to 1.0586e-006
Heightened Def Con from 1.0586e-006 to 1.0586e-006
Heightened Def Con from 1.0586e-006 to 1.0586e-006
Heightened Def Con from 1.0586e-006 to 1.0586e-006
Heightened Def Con from 1.0586e-006 to 1.0586e-006
Heightened Def Con from 1.0586e-006 to 1.0586e-006
Heightened Def Con from 1.0586e-006 to 1.0586e-006
Heightened Def Con from 1.0586e-006 to 1.0586e-006
Heightened Def Con from 1.0586e-006 to 1.0586e-006
Heightened Def Con from 1.0586e-006 to 1.0586e-006
Heightened Def Con from 1.0586e-006 to 1.05862e-006
Heightened Def Con from 1.05862e-006 to 1.05862e-006
Heightened Def Con from 1.05862e-006 to 1.05862e-006
Heightened Def Con from 1.05862e-006 to 1.05874e-006
Heightened Def Con from 1.05874e-006 to 1.05874e-006
Heightened Def Con from 1.05874e-006 to 1.05874e-006
Heightened Def Con from 1.05874e-006 to 1.05874e-006
Heightened Def Con from 1.05874e-006 to 1.05874e-006
Heightened Def Con from 1.05874e-006 to 1.05874e-006
Heightened Def Con from 1.05874e-006 to 1.05874e-006
Heightened Def Con from 1.05874e-006 to 1.05874e-006
Heightened Def Con from 1.05874e-006 to 1.05875e-006
Heightened Def Con from 1.05875e-006 +to 1.05875e-006
Heightened Def Con from 1.05875e-006 to 1.05876e-006
Heightened Def Con from 1.05876e-006 to 1.05878e-006
Heightened Def Con from 1.05878e-006 to 1.05878e-006
Heightened Def Con from 1.05878e-006 to 1.0588e-006
Heightened Def Con from 1.0588e-006 to 1.0588e-006
Heightened Def Con from 1.0588e-006 to 1.0588e-006
Heightened Def Con from 1.0588e-006 to 1.0588e-006
Heightened Def Con from 1.0588e-006 to 1.05892e-006
Heightened Def Con from 1.05892e-006 to 1.05892e-006
Heightened Def Con from 1.05892e-006 to 1.05892e-006
Heightened Def Con from 1.05892e-006 to 1.05892e-006
Heightened Def Con from 1.05892e-006 to 1.05892e-006
Heightened Def Con from 1.05892e-006 to 1.05892e-006
Heightened Def Con from 1.05892e-006 to 1.05892e-006
Heightened Def Con from 1.05892e-006 to 1.05892e-006
Heightened Def Con from 1.05892e-006 to 1.05892e-006
Heightened Def Con from 1.05892e-006 to 1.05892e-006
Heightened Def Con from 1.05892e-006 to 1.05892e-006
Heightened Def Con from 1.05892e-006 to 1.05892e-006
Heightened Def Con from 1.05892e-006 to 1.05892e-006
Heightened Def Con from 1.05892e-006 to 1.05892e-006
Heightened Def Con from 1.05892e-006 to 1.05892e-006
Heightened Def Con from 1.05892e-006 to 1.05892e-006
Heightened Def Con from 1.05892e-006 to 1.05892e-006
Heightened Def Con from 1.05892e-006 to 1.05892e-006
Heightened Def Con from 1.05892e-006 to 1.05893e-006
Heightened Def Con from 1.05893e-006 to 1.05893e-006
Heightened Def Con from 1.05893e-006 to 1.05893e-006
Heightened Def Con from 1.05893e-006 to 1.05893e-006
Heightened Def Con from 1.05893e-006 to 1.05893e-006
Heightened Def Con from 1.05893e-006 to 1.05893e-006
Heightened Def Con from 1.05893e-006 to 1.05893e-006
Heightened Def Con from 1.05893e-006 to 1.05893e-006
Heightened Def Con from 1.05893e-006 to 1.05893e-006
Heightened Def Con from 1.05893e-006 to 1.05893e-006
Heightened Def Con from 1.05893e-006 to 1.05893e-006
Heightened Def Con from 1.05893e-006 to 1.05893e-006
Heightened Def Con from 1.05893e-006 to 1.05893e-006
Heightened Def Con from 1.05893e-006 to 1.05893e-006
Heightened Def Con from 1.05893e-006 to 1.05893e-006
Heightened Def Con from 1.05893e-006 to 1.05894e-006
Heightened Def Con from 1.05894e-006 to 1.05894e-006
Heightened Def Con from 1.05894e-006 to 1.05894e-006
Heightened Def Con from 1.05894e-006 to 1.05894e-006
Heightened Def Con from 1.05894e-006 to 1.05894e-006
Heightened Def Con from 1.05894e-006 to 1.05894e-006
Heightened Def Con from 1.05894e-006 to 1.05894e-006
Heightened Def Con from 1.05894e-006 to 1.05894e-006
Heightened Def Con from 1.05894e-006 to 1.05894e-006
Heightened Def Con from 1.05894e-006 to 1.05894e-006
Heightened Def Con from 1.05894e-006 +to 1.05894e-006
Heightened Def Con from 1.05894e-006 to 1.05894e-006
Heightened Def Con from 1.05894e-006 +to 1.05894e-006
Heightened Def Con from 1.05894e-006 to 1.05894e-006
Heightened Def Con from 1.05894e-006 to 1.05894e-006
Heightened Def Con from 1.05894e-006 to 1.05894e-006
Heightened Def Con from 1.05894e-006 to 1.05894e-006
Heightened Def Con from 1.05894e-006 to 1.05894e-006
Heightened Def Con from 1.05894e-006 +to 1.05894e-006
Heightened Def Con from 1.05894e-006 to 1.05894e-006
Heightened Def Con from 1.05894e-006 to 1.05894e-006
Heightened Def Con from 1.05894e-006 to 1.05894e-006
Heightened Def Con from 1.05894e-006 to 1.05896e-006
Heightened Def Con from 1.05896e-006 +to 1.05896e-006
Heightened Def Con from 1.05896e-006 to 1.05896e-006
Heightened Def Con from 1.05896e-006 to 1.05896e-006
Heightened Def Con from 1.05896e-006 to 1.05896e-006
Heightened Def Con from 1.05896e-006 to 1.05896e-006
Heightened Def Con from 1.05896e-006 to 1.05896e-006
Heightened Def Con from 1.05896e-006 to 1.05896e-006
Heightened Def Con from 1.05896e-006 to 1.05896e-006
Heightened Def Con from 1.05896e-006 to 1.05896e-006
Heightened Def Con from 1.05896e-006 to 1.05896e-006
Heightened Def Con from 1.05896e-006 to 1.05896e-006
Heightened Def Con from 1.05896e-006 to 1.05896e-006
Heightened Def Con from 1.05896e-006 to 1.05896e-006
Heightened Def Con from 1.05896e-006 to 1.05896e-006
Heightened Def Con from 1.05896e-006 to 1.05896e-006
Heightened Def Con from 1.05896e-006 to 1.05896e-006
Heightened Def Con from 1.05896e-006 to 1.05896e-006
Heightened Def Con from 1.05896e-006 to 1.05896e-006
Heightened Def Con from 1.05896e-006 +to 1.05897e-006
Heightened Def Con from 1.05897e-006 to 1.05897e-006
Heightened Def Con from 1.05897e-006 to 1.05897e-006
Heightened Def Con from 1.05897e-006 to 1.05897e-006
Heightened Def Con from 1.05897e-006 to 1.05897e-006
Heightened Def Con from 1.05897e-006 to 1.05897e-006
Heightened Def Con from 1.05897e-006 to 1.05897e-006
Heightened Def Con from 1.05897e-006 to 1.05897e-006
Heightened Def Con from 1.05897e-006 to 1.05897e-006
Heightened Def Con from 1.05897e-006 to 1.05897e-006
Heightened Def Con from 1.05897e-006 to 1.05897e-006
Heightened Def Con from 1.05897e-006 to 1.05897e-006
Heightened Def Con from 1.05897e-006 to 1.05897e-006
Heightened Def Con from 1.05897e-006 to 1.05997e-006
Heightened Def Con from 1.05997e-006 to 1.05997e-006
Heightened Def Con from 1.05997e-006 to 1.05997e-006
Heightened Def Con from 1.05997e-006 to 1.05997e-006
Heightened Def Con from 1.05997e-006 +to 1.05997e-006
Heightened Def Con from 1.05998e-006 to 1.05998e-006
Heightened Def Con from 1.05998e-006 to 1.05998e-006
Heightened Def Con from 1.05998e-006 to 1.05998e-006
Heightened Def Con from 1.05998e-006 to 1.05998e-006
Heightened Def Con from 1.05998e-006 to 1.05998e-006
Heightened Def Con from 1.05998e-006 to 1.05998e-006
Heightened Def Con from 1.05998e-006 to 1.05998e-006
Heightened Def Con from 1.05998e-006 to 1.05998e-006
Heightened Def Con from 1.05998e-006 to 1.05998e-006
Heightened Def Con from 1.05998e-006 to 1.05998e-006
Heightened Def Con from 1.05998e-006 to 1.05998e-006
Heightened Def Con from 1.05998e-006 to 1.05998e-006
Heightened Def Con from 1.05998e-006 to 1.06098e-006
Heightened Def Con from 1.06098e-006 to 1.06098e-006
Heightened Def Con from 1.06098e-006 to 1.06098e-006
Heightened Def Con from 1.06098e-006 to 1.06098e-006
Heightened Def Con from 1.06098e-006 to 1.06098e-006
Heightened Def Con from 1.06098e-006 to 1.06098e-006
Heightened Def Con from 1.06099e-006 +to 1.061e-006
Heightened Def Con from 1.061e-006 to 1.061e-006
Heightened Def Con from 1.061e-006 to 1.061e-006
Heightened Def Con from 1.061e-006 to 1.061e-006
Heightened Def Con from 1.061e-006 to 1.061e-006
Heightened Def Con from 1.061e-006 to 1.061e-006
Heightened Def Con from 1.061e-006 to 1.061e-006
Heightened Def Con from 1.061e-006 to 1.06102e-006
Heightened Def Con from 1.06102e-006 to 1.06102e-006
Heightened Def Con from 1.06102e-006 to 1.06102e-006
Heightened Def Con from 1.06102e-006 to 1.06102e-006
Heightened Def Con from 1.06102e-006 to 1.06102e-006
Heightened Def Con from 1.06102e-006 to 1.06102e-006
Heightened Def Con from 1.06102e-006 to 1.06102e-006
Heightened Def Con from 1.06102e-006 +to 1.06102e-006
Heightened Def Con from 1.06102e-006 to 1.06102e-006
Heightened Def Con from 1.06102e-006 to 1.06102e-006
Heightened Def Con from 1.06102e-006 to 1.06102e-006
Heightened Def Con from 1.06102e-006 to 1.06102e-006
Heightened Def Con from 1.06102e-006 to 1.06102e-006
Heightened Def Con from 1.06102e-006 to 1.06102e-006
Heightened Def Con from 1.06102e-006 to 1.06103e-006
Heightened Def Con from 1.06103e-006 to 1.06103e-006
Heightened Def Con from 1.06103e-006 to 1.06103e-006
Heightened Def Con from 1.06103e-006 to 1.06103e-006
Heightened Def Con from 1.06103e-006 to 1.06103e-006
Heightened Def Con from 1.06103e-006 to 1.06103e-006
Heightened Def Con from 1.06103e-006 to 1.06103e-006
Heightened Def Con from 1.06103e-006 to 1.06103e-006
Heightened Def Con from 1.06103e-006 to 1.06104e-006
Heightened Def Con from 1.06104e-006 to 1.06104e-006
Heightened Def Con from 1.06104e-006 to 1.06104e-006
Heightened Def Con from 1.06104e-006 +to 1.06104e-006
Heightened Def Con from 1.06104e-006 to 1.06104e-006
Heightened Def Con from 1.06104e-006 to 1.06104e-006
Heightened Def Con from 1.06104e-006 to 1.06104e-006
Heightened Def Con from 1.06104e-006 to 1.06104e-006
Heightened Def Con from 1.06104e-006 to 1.06104e-006
Heightened Def Con from 1.06104e-006 to 1.06104e-006
Heightened Def Con from 1.06104e-006 to 1.06104e-006
Heightened Def Con from 1.06104e-006 to 1.06104e-006
Heightened Def Con from 1.06104e-006 to 1.06104e-006
Heightened Def Con from 1.06104e-006 to 1.06104e-006
Heightened Def Con from 1.06104e-006 to 1.06104e-006
Heightened Def Con from 1.06104e-006 to 1.06104e-006
Heightened Def Con from 1.06104e-006 +to 1.06104e-006
Heightened Def Con from 1.06104e-006 to 1.06104e-006
Heightened Def Con from 1.06104e-006 to 1.06104e-006
Heightened Def Con from 1.06104e-006 to 1.06104e-006
Heightened Def Con from 1.06104e-006 to 1.06104e-006
Heightened Def Con from 1.06104e-006 to 1.06104e-006
Heightened Def Con from 1.06104e-006 to 1.06104e-006
Heightened Def Con from 1.06104e-006 to 1.06104e-006
Heightened Def Con from 1.06104e-006 to 1.06104e-006
Heightened Def Con from 1.06105e-006 to 1.06105e-006
Heightened Def Con from 1.06105e-006 to 1.06105e-006
Heightened Def Con from 1.06105e-006 to 1.06105e-006
Heightened Def Con from 1.06105e-006 to 1.06105e-006
Heightened Def Con from 1.06105e-006 to 1.06105e-006
Heightened Def Con from 1.06105e-006 to 1.06105e-006
Heightened Def Con from 1.06105e-006 to 1.06105e-006
Heightened Def Con from 1.06105e-006 to 1.06105e-006
Heightened Def Con from 1.06105e-006 to 1.06105e-006
Heightened Def Con from 1.06105e-006 to 1.06105e-006
Heightened Def Con from 1.06105e-006 to 1.06105e-006
Heightened Def Con from 1.06105e-006 to 1.06105e-006
Heightened Def Con from 1.06105e-006 to 1.06105e-006
Heightened Def Con from 1.06105e-006 to 1.06105e-006
Heightened Def Con from 1.06105e-006 to 1.06105e-006
Heightened Def Con from 1.06105e-006 to 1.06105e-006
Heightened Def Con from 1.06105e-006 to 1.06105e-006
Heightened Def Con from 1.06105e-006 to 1.06105e-006
Heightened Def Con from 1.06105e-006 to 1.06105e-006
Heightened Def Con from 1.06105e-006 to 1.06105e-006
Heightened Def Con from 1.06105e-006 to 1.06105e-006
Heightened Def Con from 1.06105e-006 to 1.06105e-006
Heightened Def Con from 1.06105e-006 to 1.06105e-006
Heightened Def Con from 1.06105e-006 to 1.06105e-006
Heightened Def Con from 1.06105e-006 to 1.06105e-006
Heightened Def Con from 1.06105e-006 to 1.06105e-006
Heightened Def Con from 1.06105e-006 to 1.06105e-006
Heightened Def Con from 1.06105e-006 to 1.06105e-006
Heightened Def Con from 1.06105e-006 to 1.06106e-006
Heightened Def Con from 1.06106e-006 to 1.06106e-006
Heightened Def Con from 1.06106e-006 to 1.06106e-006
Heightened Def Con from 1.06106e-006 to 1.06106e-006
Heightened Def Con from 1.06106e-006 to 1.06106e-006
Heightened Def Con from 1.06106e-006 to 1.06106e-006
Heightened Def Con from 1.06106e-006 to 1.06106e-006
Heightened Def Con from 1.06106e-006 to 1.06106e-006
Heightened Def Con from 1.06106e-006 to 1.06106e-006
Heightened Def Con from 1.06106e-006 to 1.06106e-006
Heightened Def Con from 1.06106e-006 to 1.06106e-006
Heightened Def Con from 1.06106e-006 to 1.06118e-006
Heightened Def Con from 1.06119e-006 to 1.06119e-006
Heightened Def Con from 1.06119e-006 to 1.06119e-006
Heightened Def Con from 1.06119e-006 to 1.06119e-006
Heightened Def Con from 1.06119e-006 to 1.06119e-006
Heightened Def Con from 1.06119e-006 to 1.06119e-006
Heightened Def Con from 1.06119e-006 +to 1.06119e-006
Heightened Def Con from 1.06119e-006 to 1.06119e-006
Heightened Def Con from 1.06119e-006 to 1.06119e-006
Heightened Def Con from 1.06119e-006 to 1.06119e-006
Heightened Def Con from 1.06119e-006 to 1.06119e-006
Heightened Def Con from 1.06119e-006 to 1.06119e-006
Heightened Def Con from 1.06119e-006 to 1.06119e-006
Heightened Def Con from 1.06119e-006 to 1.06119e-006
Heightened Def Con from 1.06119e-006 to 1.06119e-006
Heightened Def Con from 1.06119e-006 to 1.06119e-006
Heightened Def Con from 1.06119e-006 to 1.06119e-006
Heightened Def Con from 1.06119e-006 to 1.06121e-006
Heightened Def Con from 1.06121e-006 to 1.06121e-006
Heightened Def Con from 1.06121e-006 to 1.06121e-006
Heightened Def Con from 1.06121e-006 to 1.06121e-006
Heightened Def Con from 1.06121e-006 to 1.06121e-006
Heightened Def Con from 1.06121e-006 to 1.06121e-006
Heightened Def Con from 1.06121e-006 to 1.06122e-006
Heightened Def Con from 1.06122e-006 to 1.06122e-006
Heightened Def Con from 1.06122e-006 to 1.06122e-006
Heightened Def Con from 1.06122e-006 to 1.06122e-006
Heightened Def Con from 1.06122e-006 to 1.06122e-006
Heightened Def Con from 1.06122e-006 to 1.06122e-006
Heightened Def Con from 1.06122e-006 +to 1.06122e-006
Heightened Def Con from 1.06122e-006 to 1.06124e-006
Heightened Def Con from 1.06124e-006 to 1.06124e-006
Heightened Def Con from 1.06124e-006 to 1.06124e-006
Heightened Def Con from 1.06124e-006 to 1.06124e-006
Heightened Def Con from 1.06124e-006 to 1.06124e-006
Heightened Def Con from 1.06124e-006 to 1.06124e-006
Heightened Def Con from 1.06124e-006 to 1.06124e-006
Heightened Def Con from 1.06124e-006 +to 1.06124e-006
Heightened Def Con from 1.06124e-006 to 1.06124e-006
Heightened Def Con from 1.06124e-006 to 1.06124e-006
Heightened Def Con from 1.06124e-006 to 1.06124e-006
Heightened Def Con from 1.06124e-006 to 1.06124e-006
Heightened Def Con from 1.06124e-006 to 1.06124e-006
Heightened Def Con from 1.06124e-006 to 1.06124e-006
Heightened Def Con from 1.06124e-006 to 1.06125e-006
Heightened Def Con from 1.06125e-006 to 1.06125e-006
Heightened Def Con from 1.06125e-006 to 1.06125e-006
Heightened Def Con from 1.06125e-006 to 1.06125e-006
Heightened Def Con from 1.06125e-006 to 1.06125e-006
Heightened Def Con from 1.06125e-006 to 1.06125e-006
Heightened Def Con from 1.06125e-006 +to 1.06125e-006
Heightened Def Con from 1.06125e-006 to 1.06125e-006
Heightened Def Con from 1.06125e-006 to 1.06125e-006
Heightened Def Con from 1.06125e-006 to 1.06125e-006
Heightened Def Con from 1.06125e-006 to 1.06125e-006
Heightened Def Con from 1.06125e-006 to 1.06125e-006
Heightened Def Con from 1.06125e-006 to 1.06225e-006
Heightened Def Con from 1.06225e-006 to 1.06225e-006
Heightened Def Con from 1.06225e-006 ++to 1.06225e-006
Heightened Def Con from 1.06225e-006 to 1.06225e-006
Heightened Def Con from 1.06225e-006 to 1.06225e-006
Heightened Def Con from 1.06225e-006 +to 1.06225e-006
Heightened Def Con from 1.06225e-006 to 1.06226e-006
Heightened Def Con from 1.06226e-006 to 1.06226e-006
Heightened Def Con from 1.06226e-006 to 1.06226e-006
Heightened Def Con from 1.06226e-006 to 1.06226e-006
Heightened Def Con from 1.06226e-006 to 1.06226e-006
Heightened Def Con from 1.06226e-006 to 1.06226e-006
Heightened Def Con from 1.06226e-006 to 1.06226e-006
Heightened Def Con from 1.06226e-006 to 1.06226e-006
Heightened Def Con from 1.06226e-006 to 1.06226e-006
Heightened Def Con from 1.06226e-006 to 1.06226e-006
Heightened Def Con from 1.06226e-006 to 1.06226e-006
Heightened Def Con from 1.06226e-006 to 1.06226e-006
Heightened Def Con from 1.06226e-006 to 1.06328e-006
Heightened Def Con from 1.06328e-006 to 1.06328e-006
Heightened Def Con from 1.06328e-006 to 1.06428e-006
Heightened Def Con from 1.06428e-006 to 1.06428e-006
Heightened Def Con from 1.06428e-006 to 1.06428e-006
Heightened Def Con from 1.06428e-006 +to 1.06428e-006
Heightened Def Con from 1.06428e-006 to 1.06428e-006
Heightened Def Con from 1.06428e-006 to 1.06428e-006
Heightened Def Con from 1.06428e-006 to 1.06428e-006
Heightened Def Con from 1.06428e-006 to 1.06428e-006
Heightened Def Con from 1.06428e-006 to 1.06428e-006
Heightened Def Con from 1.06428e-006 to 1.06428e-006
Heightened Def Con from 1.06428e-006 to 1.06428e-006
Heightened Def Con from 1.06428e-006 to 1.06428e-006
Heightened Def Con from 1.06428e-006 to 1.06428e-006
Heightened Def Con from 1.06429e-006 to 1.0643e-006
Heightened Def Con from 1.0643e-006 +to 1.0643e-006
Heightened Def Con from 1.0643e-006 to 1.0643e-006
Heightened Def Con from 1.0643e-006 to 1.0643e-006
Heightened Def Con from 1.0643e-006 to 1.0643e-006
Heightened Def Con from 1.0643e-006 to 1.0643e-006
Heightened Def Con from 1.0643e-006 to 1.0643e-006
Heightened Def Con from 1.0643e-006 to 1.0643e-006
Heightened Def Con from 1.0643e-006 to 1.0643e-006
Heightened Def Con from 1.0643e-006 to 1.06431e-006
Heightened Def Con from 1.06431e-006 to 1.06431e-006
Heightened Def Con from 1.06431e-006 +to 1.06431e-006
Heightened Def Con from 1.06431e-006 to 1.06431e-006
Heightened Def Con from 1.06431e-006 to 1.06431e-006
Heightened Def Con from 1.06431e-006 to 1.06431e-006
Heightened Def Con from 1.06431e-006 to 1.06431e-006
Heightened Def Con from 1.06431e-006 to 1.06431e-006
Heightened Def Con from 1.06431e-006 to 1.06431e-006

Date: Thu May 25 14:48:29 2023
Total elapsed time: 9.462 seconds.

tnom = 27
temp = 27
method = modified trap
totiter = 1949571
traniter = 1943021
tranpoints = 235714
accept = 115255
rejected = 128501
matrix size = 35
fillins = 9
solver = Normal
Matrix Compiler1: 2.35 KB object code size  1.0/0.5/[0.4]
Matrix Compiler2: off  [0.4]/0.6/0.5

