Circuit: * C:\users\leonardo\Desktop\FSAE\inverter-simulation\main-attempt\inverter-spice.asc

Limiting rise time of source v2 to 3.125e-006
Limiting fall time of source v2 to 3.125e-006
Direct Newton iteration failed to find .op point.  (Use ".option noopiter" to skip.)
Starting Gmin stepping
Gmin = 10
Gmin = 1.07374
Gmin = 0.115292
Gmin = 0.0123794
Gmin = 0.00132923
Gmin = 0.000142725
Gmin = 1.5325e-005
Gmin = 1.6455e-006
Gmin = 1.76685e-007
Gmin = 1.89714e-008
Gmin = 2.03704e-009
vernier = 0.5
vernier = 0.666667
Gmin = 6.64404e-010
vernier = 0.333333
vernier = 0.444444
Gmin = 2.94423e-010
vernier = 0.222222
vernier = 0.111111
vernier = 0.0555555
Gmin = 2.50756e-010
vernier = 0.074074
vernier = 0.037037
vernier = 0.0185185
Gmin = 2.35114e-010
vernier = 0.00925925
vernier = 0.0123457
Gmin = 2.30627e-010
vernier = 0.0164609
vernier = 0.0219478
Gmin = 2.21197e-010
vernier = 0.0292638
Gmin = 2.07147e-010
vernier = 0.0146319
vernier = 0.00731595
Gmin = 2.04513e-010
vernier = 0.00975459
vernier = 0.0048773
vernier = 0.00243865
vernier = 0.00121932
vernier = 0.000609662
Gmin = 2.03767e-010
vernier = 0.000457246
Gmin = 0
Gmin stepping failed

Starting source stepping with srcstepmethod=0
Source Step = 3.0303%
Source Step = 33.3333%
Source Step = 63.6364%
Source Step = 93.9394%
Source stepping succeeded in finding the operating point.

Changing Tseed to 5e-009
Changing Tseed to 5e-011
Changing Tseed to 5e-008
Heightened Def Con from 5.07813e-008 to 5.07817e-008
Heightened Def Con from 5.07823e-008 to 5.0798e-008
Heightened Def Con from 5.07988e-008 to 5.08008e-008
Heightened Def Con from 5.08008e-008 to 5.08008e-008
Heightened Def Con from 5.08013e-008 to 5.08018e-008
Heightened Def Con from 5.08026e-008 to 5.08029e-008
Heightened Def Con from 5.08034e-008 to 5.08036e-008
Heightened Def Con from 5.08077e-008 to 5.08082e-008
Heightened Def Con from 5.0809e-008 to 5.0809e-008
Heightened Def Con from 5.08098e-008 to 5.08101e-008
Heightened Def Con from 5.08106e-008 to 5.08111e-008
Heightened Def Con from 5.0812e-008 to 5.0939e-008
Heightened Def Con from 5.0967e-008 to 5.09675e-008
Heightened Def Con from 5.0969e-008 to 5.09846e-008
Heightened Def Con from 5.09859e-008 to 5.09862e-008
Heightened Def Con from 5.09867e-008 to 5.09872e-008
Heightened Def Con from 5.09884e-008 to 5.19884e-008
Heightened Def Con from 5.19888e-008 to 5.19891e-008
Heightened Def Con from 5.19902e-008 to 5.19924e-008
Heightened Def Con from 5.19959e-008 to 5.19964e-008
Heightened Def Con from 5.20047e-008 to 5.22547e-008
Heightened Def Con from 5.22551e-008 to 5.22556e-008
Heightened Def Con from 5.22592e-008 to 5.22597e-008
Heightened Def Con from 5.22605e-008 to 5.2261e-008
Heightened Def Con from 5.22645e-008 to 5.22684e-008
Heightened Def Con from 5.22702e-008 to 5.23955e-008
Heightened Def Con from 5.24028e-008 to 5.24048e-008
Heightened Def Con from 5.24055e-008 to 5.24211e-008
Heightened Def Con from 5.2422e-008 to 5.24225e-008
Heightened Def Con from 5.24241e-008 to 5.24246e-008
Heightened Def Con from 5.24282e-008 to 5.25532e-008
Heightened Def Con from 5.25546e-008 to 5.25702e-008
Heightened Def Con from 5.25708e-008 to 5.26978e-008
Heightened Def Con from 5.27129e-008 to 5.2713e-008
Heightened Def Con from 5.27133e-008 to 5.29633e-008
Heightened Def Con from 5.29637e-008 to 5.29642e-008
Heightened Def Con from 5.29657e-008 to 5.29677e-008
Heightened Def Con from 5.29687e-008 to 5.29726e-008
Heightened Def Con from 5.29784e-008 to 5.29789e-008
Heightened Def Con from 5.29806e-008 to 5.29811e-008
Heightened Def Con from 5.2982e-008 to 5.29823e-008
Heightened Def Con from 5.29834e-008 to 5.29854e-008
Heightened Def Con from 5.29862e-008 to 5.29867e-008
Heightened Def Con from 5.29877e-008 to 5.30033e-008
Heightened Def Con from 5.30039e-008 to 5.30059e-008
Heightened Def Con from 5.30063e-008 to 5.30068e-008
Heightened Def Con from 5.30083e-008 to 5.41333e-008
Heightened Def Con from 5.41373e-008 to 5.51373e-008
Heightened Def Con from 5.51382e-008 to 5.51387e-008
Heightened Def Con from 5.51404e-008 to 5.51424e-008
Heightened Def Con from 5.51433e-008 to 5.51472e-008
Heightened Def Con from 5.51483e-008 to 5.52733e-008
Heightened Def Con from 5.52739e-008 to 5.52896e-008
Heightened Def Con from 5.529e-008 to 5.53212e-008
Heightened Def Con from 5.53329e-008 to 5.53505e-008
Heightened Def Con from 5.53513e-008 to 5.53669e-008
Heightened Def Con from 5.53675e-008 to 5.53714e-008
Heightened Def Con from 5.53988e-008 to 5.53993e-008
Heightened Def Con from 5.53997e-008 to 5.54017e-008
Heightened Def Con from 5.54017e-008 to 5.54193e-008
Heightened Def Con from 5.54233e-008 to 5.54253e-008
Heightened Def Con from 5.5426e-008 to 5.6426e-008
Heightened Def Con from 5.64267e-008 to 5.64272e-008
Heightened Def Con from 5.64283e-008 to 5.65533e-008
Heightened Def Con from 5.65543e-008 to 5.65563e-008
Heightened Def Con from 5.65569e-008 to 5.65725e-008
Heightened Def Con from 5.65725e-008 to 5.65725e-008
Heightened Def Con from 5.65733e-008 to 5.6589e-008
Heightened Def Con from 5.65898e-008 to 5.6621e-008
Heightened Def Con from 5.66226e-008 to 5.6623e-008
Heightened Def Con from 5.66245e-008 to 5.66265e-008
Heightened Def Con from 5.66271e-008 to 5.66276e-008
Heightened Def Con from 5.66282e-008 to 5.66439e-008
Heightened Def Con from 5.66443e-008 to 5.66463e-008
Heightened Def Con from 5.66477e-008 to 5.66481e-008
Heightened Def Con from 5.66492e-008 to 5.66495e-008
Heightened Def Con from 5.66502e-008 to 5.66522e-008
Heightened Def Con from 5.66528e-008 to 5.66548e-008
Heightened Def Con from 5.66552e-008 to 5.76552e-008
Heightened Def Con from 5.76557e-008 to 5.76562e-008
Heightened Def Con from 5.76568e-008 to 5.76588e-008
Heightened Def Con from 5.76596e-008 to 5.76596e-008
Heightened Def Con from 5.76596e-008 to 5.76616e-008
Heightened Def Con from 5.76622e-008 to 5.76627e-008
Heightened Def Con from 5.76642e-008 to 5.76642e-008
Heightened Def Con from 5.76642e-008 to 5.76799e-008
Heightened Def Con from 5.76803e-008 to 5.76806e-008
Heightened Def Con from 5.7681e-008 to 5.76815e-008
Heightened Def Con from 5.76826e-008 to 5.76831e-008
Heightened Def Con from 5.76854e-008 to 5.76854e-008
Heightened Def Con from 5.76854e-008 to 5.76876e-008
Heightened Def Con from 5.76887e-008 to 5.76887e-008
Heightened Def Con from 5.76892e-008 to 5.77204e-008
Heightened Def Con from 5.77243e-008 to 5.77282e-008
Heightened Def Con from 5.77294e-008 to 5.77299e-008
Heightened Def Con from 5.7731e-008 to 5.7731e-008
Heightened Def Con from 5.77314e-008 to 5.77319e-008
Heightened Def Con from 5.77327e-008 to 5.77349e-008
Heightened Def Con from 5.77362e-008 to 5.77367e-008
Heightened Def Con from 5.77412e-008 to 5.77434e-008
Heightened Def Con from 5.77454e-008 to 5.77476e-008
Heightened Def Con from 5.7749e-008 to 5.77492e-008
Heightened Def Con from 5.77498e-008 to 5.77654e-008
Heightened Def Con from 5.77665e-008 to 5.77821e-008
Heightened Def Con from 5.77831e-008 to 5.7785e-008
Heightened Def Con from 5.77858e-008 to 5.77878e-008
Heightened Def Con from 5.77884e-008 to 5.77887e-008
Heightened Def Con from 5.7789e-008 to 5.77892e-008
Heightened Def Con from 5.77897e-008 to 5.77902e-008
Heightened Def Con from 5.77908e-008 to 5.79158e-008
Heightened Def Con from 5.79162e-008 to 5.79166e-008
Heightened Def Con from 5.79174e-008 to 5.79177e-008
Heightened Def Con from 5.7919e-008 to 5.79347e-008
Heightened Def Con from 5.79347e-008 +to 5.79522e-008
Heightened Def Con from 6.5057e-008 to 6.50575e-008
Heightened Def Con from 6.50581e-008 to 6.60737e-008
Heightened Def Con from 6.60743e-008 to 6.60748e-008
Heightened Def Con from 6.60761e-008 to 6.70761e-008
Heightened Def Con from 6.70779e-008 to 6.70779e-008
Heightened Def Con from 6.70789e-008 to 6.70809e-008
Heightened Def Con from 6.70814e-008 to 6.70815e-008
Heightened Def Con from 6.70831e-008 to 6.70836e-008
Heightened Def Con from 6.7084e-008 to 6.70845e-008
Heightened Def Con from 6.7086e-008 to 6.70863e-008
Heightened Def Con from 6.70875e-008 to 6.80875e-008
Heightened Def Con from 6.80881e-008 to 6.81193e-008
Heightened Def Con from 6.81507e-008 to 6.91507e-008
Heightened Def Con from 6.9152e-008 to 7.0277e-008
Heightened Def Con from 7.03086e-008 to 7.03105e-008
Heightened Def Con from 7.03126e-008 to 7.04376e-008
Heightened Def Con from 7.04382e-008 to 7.04401e-008
Heightened Def Con from 7.04404e-008 to 7.04407e-008
Heightened Def Con from 7.0441e-008 to 7.0566e-008
Heightened Def Con from 7.05684e-008 to 7.05689e-008
Heightened Def Con from 7.05706e-008 to 7.26956e-008
Heightened Def Con from 7.61961e-008 to 7.61981e-008
Heightened Def Con from 7.61985e-008 to 7.64485e-008
Heightened Def Con from 7.64491e-008 to 7.64667e-008
Heightened Def Con from 7.64712e-008 to 7.64868e-008
Heightened Def Con from 7.64884e-008 to 7.67384e-008
Heightened Def Con from 7.67428e-008 to 7.67585e-008
Heightened Def Con from 7.67609e-008 to 7.69015e-008
Heightened Def Con from 7.69083e-008 to 7.79086e-008
Heightened Def Con from 7.79093e-008 to 7.79096e-008
Heightened Def Con from 7.79103e-008 to 7.80509e-008
Heightened Def Con from 7.80833e-008 to 7.82083e-008
Heightened Def Con from 7.82092e-008 to 7.82094e-008
Heightened Def Con from 7.82099e-008 to 7.82102e-008
Heightened Def Con from 7.82111e-008 to 7.84611e-008
Heightened Def Con from 7.84689e-008 to 7.84694e-008
Heightened Def Con from 7.84702e-008 to 7.85952e-008
Heightened Def Con from 7.85965e-008 to 7.88465e-008
Heightened Def Con from 7.89016e-008 to 7.89173e-008
Heightened Def Con from 7.89179e-008 to 8.10429e-008
Heightened Def Con from 8.10748e-008 to 8.10768e-008
Heightened Def Con from 8.10776e-008 to 8.20795e-008
Heightened Def Con from 8.20844e-008 to 8.20847e-008
Heightened Def Con from 8.20856e-008 to 8.21012e-008
Heightened Def Con from 8.21038e-008 to 8.21043e-008
Heightened Def Con from 8.21103e-008 to 8.21415e-008
Heightened Def Con from 8.21474e-008 to 8.21476e-008
Heightened Def Con from 8.21485e-008 to 8.22891e-008
Heightened Def Con from 8.29297e-008 to 8.2961e-008
Heightened Def Con from 8.2964e-008 to 8.29952e-008
Heightened Def Con from 8.3001e-008 to 8.30322e-008
Heightened Def Con from 8.30682e-008 to 8.33182e-008
Heightened Def Con from 8.33284e-008 to 8.53284e-008
Heightened Def Con from 8.61392e-008 to 8.61397e-008
Heightened Def Con from 8.61418e-008 to 8.62688e-008
Heightened Def Con from 8.62747e-008 to 8.82747e-008
Heightened Def Con from 8.965e-008 to 8.965e-008
Heightened Def Con from 8.96501e-008 to 9.06501e-008
Heightened Def Con from 9.06506e-008 to 9.16506e-008
Heightened Def Con from 9.16517e-008 to 9.17923e-008
Heightened Def Con from 9.17972e-008 to 9.29222e-008
Heightened Def Con from 9.29233e-008 to 9.29253e-008
Heightened Def Con from 9.29265e-008 to 9.29267e-008
Heightened Def Con from 9.29277e-008 to 9.31777e-008
Heightened Def Con from 9.31816e-008 to 9.33223e-008
Heightened Def Con from 9.33277e-008 to 9.34528e-008
Heightened Def Con from 9.34534e-008 to 9.35784e-008
Heightened Def Con from 9.35793e-008 to 9.35796e-008
Heightened Def Con from 9.35797e-008 to 9.35973e-008
Heightened Def Con from 9.36523e-008 to 9.37775e-008
Heightened Def Con from 9.37791e-008 to 9.37794e-008
Heightened Def Con from 9.37802e-008 to 9.49052e-008
Heightened Def Con from 9.52206e-008 to 9.54706e-008
Heightened Def Con from 9.55101e-008 to 9.56371e-008
Heightened Def Con from 9.56437e-008 to 9.67687e-008
Heightened Def Con from 9.77537e-008 to 9.77557e-008
Heightened Def Con from 9.77563e-008 to 9.77564e-008
Heightened Def Con from 9.77568e-008 to 9.77607e-008
Heightened Def Con from 9.7772e-008 to 9.77725e-008
Heightened Def Con from 9.7774e-008 to 9.8899e-008
Heightened Def Con from 9.96499e-008 to 1.00775e-007
Heightened Def Con from 1.00778e-007 to 1.01028e-007
Heightened Def Con from 1.01987e-007 to 1.02112e-007
Heightened Def Con from 1.02112e-007 to 1.02237e-007
Heightened Def Con from 1.02242e-007 to 1.02258e-007
Heightened Def Con from 1.02259e-007 to 1.02259e-007
Heightened Def Con from 1.0226e-007 to 1.0226e-007
Heightened Def Con from 1.02261e-007 to 1.03261e-007
Heightened Def Con from 1.03262e-007 to 1.03262e-007
Heightened Def Con from 1.03263e-007 to 1.04263e-007
Heightened Def Con from 1.04264e-007 to 1.04391e-007
Heightened Def Con from 1.04392e-007 to 1.04642e-007
Heightened Def Con from 1.04674e-007 to 1.04674e-007
Heightened Def Con from 1.04674e-007 to 1.04674e-007
Heightened Def Con from 1.04674e-007 to 1.04674e-007
Heightened Def Con from 1.04675e-007 to 1.04675e-007
Heightened Def Con from 1.04675e-007 to 1.04691e-007
Heightened Def Con from 1.04691e-007 to 1.04723e-007
Heightened Def Con from 1.04723e-007 to 1.04725e-007
Heightened Def Con from 1.04726e-007 to 1.04726e-007
Heightened Def Con from 1.04726e-007 to 1.04727e-007
Heightened Def Con from 1.04727e-007 to 1.04731e-007
Heightened Def Con from 1.04736e-007 to 1.04737e-007
Heightened Def Con from 1.04739e-007 to 1.04741e-007
Heightened Def Con from 1.04742e-007 to 1.04758e-007
Heightened Def Con from 1.04759e-007 to 1.04761e-007
Heightened Def Con from 1.04762e-007 to 1.05762e-007
Heightened Def Con from 1.05762e-007 to 1.05762e-007
Heightened Def Con from 1.05762e-007 to 1.05763e-007
Heightened Def Con from 1.05765e-007 to 1.05891e-007
Heightened Def Con from 1.05895e-007 to 1.05895e-007
Heightened Def Con from 1.05896e-007 to 1.05898e-007
Heightened Def Con from 1.05899e-007 to 1.05901e-007
Heightened Def Con from 1.05902e-007 to 1.05904e-007
Heightened Def Con from 1.05905e-007 to 1.05905e-007
Heightened Def Con from 1.05906e-007 to 1.05906e-007
Heightened Def Con from 1.05907e-007 to 1.06032e-007
Heightened Def Con from 1.06032e-007 to 1.06034e-007
Heightened Def Con from 1.06036e-007 to 1.06036e-007
Heightened Def Con from 1.06036e-007 to 1.06051e-007
Heightened Def Con from 1.06052e-007 to 1.06052e-007
Heightened Def Con from 1.06053e-007 to 1.06055e-007
Heightened Def Con from 1.06056e-007 to 1.06058e-007
Heightened Def Con from 1.06059e-007 to 1.0606e-007
Heightened Def Con from 1.06063e-007 to 1.07188e-007
Heightened Def Con from 1.07192e-007 to 1.07209e-007
Heightened Def Con from 1.07211e-007 to 1.07211e-007
Heightened Def Con from 1.07213e-007 to 1.07215e-007
Heightened Def Con from 1.07216e-007 to 1.07343e-007
Heightened Def Con from 1.07344e-007 to 1.07345e-007
Heightened Def Con from 1.07346e-007 to 1.07346e-007
Heightened Def Con from 1.07381e-007 to 1.07382e-007
Heightened Def Con from 1.07383e-007 to 1.07524e-007
Heightened Def Con from 1.07552e-007 to 1.07554e-007
Heightened Def Con from 1.0756e-007 to 1.07562e-007
Heightened Def Con from 1.07563e-007 to 1.07565e-007
Heightened Def Con from 1.07566e-007 to 1.07568e-007
Heightened Def Con from 1.07568e-007 to 1.07709e-007
Heightened Def Con from 1.07713e-007 to 1.07713e-007
Heightened Def Con from 1.07715e-007 to 1.07715e-007
Heightened Def Con from 1.07715e-007 to 1.07719e-007
Heightened Def Con from 1.07724e-007 to 1.08849e-007
Heightened Def Con from 1.0885e-007 to 1.0885e-007
Heightened Def Con from 1.08852e-007 to 1.08854e-007
Heightened Def Con from 1.08858e-007 to 1.08858e-007
Heightened Def Con from 1.08858e-007 to 1.08858e-007
Heightened Def Con from 1.08859e-007 to 1.08859e-007
Heightened Def Con from 1.08863e-007 to 1.08863e-007
Heightened Def Con from 1.08867e-007 to 1.09867e-007
Heightened Def Con from 1.09875e-007 to 1.09877e-007
Heightened Def Con from 1.09877e-007 to 1.09881e-007
Heightened Def Con from 1.09893e-007 to 1.09895e-007
Heightened Def Con from 1.09896e-007 to 1.09898e-007
Heightened Def Con from 1.09898e-007 to 1.09902e-007
Heightened Def Con from 1.09904e-007 to 1.09904e-007
Heightened Def Con from 1.09905e-007 to 1.10905e-007
Heightened Def Con from 1.10906e-007 to 1.10907e-007
Heightened Def Con from 1.10907e-007 to 1.10908e-007
Heightened Def Con from 1.10909e-007 to 1.10925e-007
Heightened Def Con from 1.10926e-007 to 1.10928e-007
Heightened Def Con from 1.10929e-007 to 1.10931e-007
Heightened Def Con from 1.10932e-007 to 1.10934e-007
Heightened Def Con from 1.10935e-007 to 1.10937e-007
Heightened Def Con from 1.10937e-007 to 1.10939e-007
Heightened Def Con from 1.10939e-007 to 1.10941e-007
Heightened Def Con from 1.10942e-007 to 1.10943e-007
Heightened Def Con from 1.10944e-007 to 1.10945e-007
Heightened Def Con from 1.10946e-007 to 1.10946e-007
Heightened Def Con from 1.10947e-007 to 1.10963e-007
Heightened Def Con from 1.10964e-007 to 1.10964e-007
Heightened Def Con from 1.10965e-007 to 1.10967e-007
Heightened Def Con from 1.10971e-007 to 1.11096e-007
Heightened Def Con from 1.11097e-007 to 1.11099e-007
Heightened Def Con from 1.11099e-007 to 1.11099e-007
Heightened Def Con from 1.111e-007 to 1.111e-007
Heightened Def Con from 1.11101e-007 to 1.11103e-007
Heightened Def Con from 1.11103e-007 to 1.11103e-007
Heightened Def Con from 1.11103e-007 to 1.11118e-007
Heightened Def Con from 1.11118e-007 to 1.11243e-007
Heightened Def Con from 1.11244e-007 to 1.11261e-007
Heightened Def Con from 1.11265e-007 to 1.12265e-007
Heightened Def Con from 1.12266e-007 to 1.12267e-007
Heightened Def Con from 1.12267e-007 to 1.12268e-007
Heightened Def Con from 1.12272e-007 to 1.12272e-007
Heightened Def Con from 1.12273e-007 to 1.12273e-007
Heightened Def Con from 1.12274e-007 to 1.12274e-007
Heightened Def Con from 1.12276e-007 to 1.13278e-007
Heightened Def Con from 1.13278e-007 to 1.14279e-007
Heightened Def Con from 1.1428e-007 to 1.1428e-007
Heightened Def Con from 1.14281e-007 to 1.14283e-007
Heightened Def Con from 1.14285e-007 to 1.14285e-007
Heightened Def Con from 1.14285e-007 to 1.14285e-007
Heightened Def Con from 1.14286e-007 to 1.14288e-007
Heightened Def Con from 1.14289e-007 to 1.14289e-007
Heightened Def Con from 1.1429e-007 to 1.14292e-007
Heightened Def Con from 1.14293e-007 to 1.14293e-007
Heightened Def Con from 1.14297e-007 to 1.14297e-007
Heightened Def Con from 1.14297e-007 to 1.14297e-007
Heightened Def Con from 1.14297e-007 to 1.14297e-007
Heightened Def Con from 1.14298e-007 to 1.143e-007
Heightened Def Con from 1.14307e-007 to 1.14432e-007
Heightened Def Con from 1.14433e-007 to 1.14434e-007
Heightened Def Con from 1.14435e-007 to 1.14437e-007
Heightened Def Con from 1.14439e-007 to 1.14439e-007
Heightened Def Con from 1.14441e-007 to 1.14443e-007
Heightened Def Con from 1.14444e-007 to 1.14444e-007
Heightened Def Con from 1.14448e-007 to 1.14448e-007
Heightened Def Con from 1.14452e-007 to 1.14577e-007
Heightened Def Con from 1.14577e-007 to 1.14581e-007
Heightened Def Con from 1.14585e-007 to 1.1471e-007
Heightened Def Con from 1.14711e-007 to 1.14713e-007
Heightened Def Con from 1.14714e-007 to 1.14715e-007
Heightened Def Con from 1.14716e-007 to 1.14717e-007
Heightened Def Con from 1.14719e-007 to 1.14719e-007
Heightened Def Con from 1.14727e-007 to 1.14852e-007
Heightened Def Con from 1.14852e-007 to 1.14853e-007
Heightened Def Con from 1.14853e-007 to 1.14869e-007
Heightened Def Con from 1.1487e-007 to 1.14872e-007
Heightened Def Con from 1.14872e-007 to 1.14873e-007
Heightened Def Con from 1.14874e-007 to 1.14874e-007
Heightened Def Con from 1.14875e-007 to 1.14875e-007
Heightened Def Con from 1.14876e-007 to 1.14891e-007
Heightened Def Con from 1.14892e-007 to 1.15892e-007
Heightened Def Con from 1.15893e-007 to 1.15893e-007
Heightened Def Con from 1.15894e-007 to 1.15896e-007
Heightened Def Con from 1.15896e-007 to 1.15897e-007
Heightened Def Con from 1.15898e-007 to 1.15898e-007
Heightened Def Con from 1.15898e-007 to 1.15898e-007
Heightened Def Con from 1.15899e-007 to 1.15901e-007
Heightened Def Con from 1.15901e-007 to 1.15901e-007
Heightened Def Con from 1.15902e-007 to 1.15904e-007
Heightened Def Con from 1.15905e-007 to 1.15905e-007
Heightened Def Con from 1.15906e-007 to 1.15908e-007
Heightened Def Con from 1.15909e-007 to 1.15911e-007
Heightened Def Con from 1.15911e-007 to 1.15927e-007
Heightened Def Con from 1.15928e-007 to 1.15928e-007
Heightened Def Con from 1.1593e-007 to 1.15932e-007
Heightened Def Con from 1.15933e-007 to 1.15933e-007
Heightened Def Con from 1.15934e-007 to 1.15935e-007
Heightened Def Con from 1.15936e-007 to 1.16936e-007
Heightened Def Con from 1.1694e-007 to 1.16942e-007
Heightened Def Con from 1.16942e-007 to 1.16958e-007
Heightened Def Con from 1.16958e-007 to 1.16959e-007
Heightened Def Con from 1.16959e-007 to 1.1696e-007
Heightened Def Con from 1.16961e-007 to 1.17086e-007
Heightened Def Con from 1.17086e-007 to 1.17086e-007
Heightened Def Con from 1.17087e-007 to 1.17091e-007
Heightened Def Con from 1.17098e-007 to 1.17099e-007
Heightened Def Con from 1.17099e-007 to 1.18115e-007
Heightened Def Con from 1.18116e-007 to 1.18118e-007
Heightened Def Con from 1.18119e-007 to 1.18244e-007
Heightened Def Con from 1.18245e-007 to 1.18245e-007
Heightened Def Con from 1.18245e-007 to 1.18249e-007
Heightened Def Con from 1.18254e-007 to 1.18258e-007
Heightened Def Con from 1.18258e-007 to 1.18274e-007
Heightened Def Con from 1.18275e-007 to 1.18279e-007
Heightened Def Con from 1.1828e-007 to 1.1828e-007
Heightened Def Con from 1.1828e-007 to 1.18405e-007
Heightened Def Con from 1.18406e-007 to 1.18531e-007
Heightened Def Con from 1.18532e-007 to 1.18534e-007
Heightened Def Con from 1.18534e-007 to 1.18536e-007
Heightened Def Con from 1.18537e-007 to 1.18539e-007
Heightened Def Con from 1.1854e-007 to 1.18665e-007
Heightened Def Con from 1.18666e-007 to 1.18666e-007
Heightened Def Con from 1.18666e-007 to 1.18668e-007
Heightened Def Con from 1.18669e-007 to 1.18669e-007
Heightened Def Con from 1.18669e-007 to 1.19669e-007
Heightened Def Con from 1.1967e-007 to 1.19672e-007
Heightened Def Con from 1.19672e-007 to 1.19674e-007
Heightened Def Con from 1.19675e-007 to 1.19802e-007
Heightened Def Con from 1.19804e-007 to 1.19929e-007
Heightened Def Con from 1.19929e-007 to 1.19929e-007
Heightened Def Con from 1.19929e-007 to 1.19933e-007
Heightened Def Con from 1.19934e-007 to 1.2095e-007
Heightened Def Con from 1.20951e-007 to 1.20953e-007
Heightened Def Con from 1.20954e-007 to 1.21956e-007
Heightened Def Con from 1.2196e-007 to 1.2196e-007
Heightened Def Con from 1.21962e-007 to 1.21964e-007
Heightened Def Con from 1.21965e-007 to 1.21969e-007
Heightened Def Con from 1.21983e-007 to 1.21998e-007
Heightened Def Con from 1.21999e-007 to 1.21999e-007
Heightened Def Con from 1.21999e-007 to 1.22e-007
Heightened Def Con from 1.22001e-007 to 1.22003e-007
Heightened Def Con from 1.22003e-007 to 1.22005e-007
Heightened Def Con from 1.22006e-007 to 1.22006e-007
Heightened Def Con from 1.22008e-007 to 1.22039e-007
Heightened Def Con from 1.2204e-007 to 1.2304e-007
Heightened Def Con from 1.23041e-007 to 1.23043e-007
Heightened Def Con from 1.23044e-007 to 1.23045e-007
Heightened Def Con from 1.23053e-007 to 1.23053e-007
Heightened Def Con from 1.23057e-007 to 1.24057e-007
Heightened Def Con from 1.24059e-007 to 1.24186e-007
Heightened Def Con from 1.24187e-007 to 1.24218e-007
Heightened Def Con from 1.24218e-007 to 1.24219e-007
Heightened Def Con from 1.2422e-007 to 1.2422e-007
Heightened Def Con from 1.2422e-007 to 1.2522e-007
Heightened Def Con from 1.25221e-007 to 1.25223e-007
Heightened Def Con from 1.25223e-007 to 1.25255e-007
Heightened Def Con from 1.25259e-007 to 1.25275e-007
Heightened Def Con from 1.25275e-007 to 1.25416e-007
Heightened Def Con from 1.25433e-007 to 1.25434e-007
Heightened Def Con from 1.25435e-007 to 1.2545e-007
Heightened Def Con from 1.25451e-007 to 1.25453e-007
Heightened Def Con from 1.25453e-007 to 1.25454e-007
Heightened Def Con from 1.25456e-007 to 1.25459e-007
Heightened Def Con from 1.25487e-007 to 1.25503e-007
Heightened Def Con from 1.25503e-007 to 1.26519e-007
Heightened Def Con from 1.2655e-007 to 1.26551e-007
Heightened Def Con from 1.26554e-007 to 1.28554e-007
Heightened Def Con from 1.28555e-007 to 1.29557e-007
Heightened Def Con from 1.29558e-007 to 1.29808e-007
Heightened Def Con from 1.29809e-007 to 1.29949e-007
Heightened Def Con from 1.2995e-007 to 1.29981e-007
Heightened Def Con from 1.3002e-007 to 1.30022e-007
Heightened Def Con from 1.30023e-007 to 1.30054e-007
Heightened Def Con from 1.30055e-007 to 1.30195e-007
Heightened Def Con from 1.30196e-007 to 1.31212e-007
Heightened Def Con from 1.31243e-007 to 1.3126e-007
Heightened Def Con from 1.31263e-007 to 1.31264e-007
Heightened Def Con from 1.31264e-007 to 1.31296e-007
Heightened Def Con from 1.31297e-007 to 1.31297e-007
Heightened Def Con from 1.31297e-007 to 1.31298e-007
Heightened Def Con from 1.31298e-007 to 1.31298e-007
Heightened Def Con from 1.31301e-007 to 1.31304e-007
Heightened Def Con from 1.31316e-007 to 1.32318e-007
Heightened Def Con from 1.32331e-007 to 1.34331e-007
Heightened Def Con from 1.34332e-007 to 1.34582e-007
Heightened Def Con from 1.34583e-007 to 1.34724e-007
Heightened Def Con from 1.34818e-007 to 1.34818e-007
Heightened Def Con from 1.34819e-007 to 1.34821e-007
Heightened Def Con from 1.34823e-007 to 1.34825e-007
Heightened Def Con from 1.34825e-007 to 1.34841e-007
Heightened Def Con from 1.34843e-007 to 1.35843e-007
Heightened Def Con from 1.35844e-007 to 1.35846e-007
Heightened Def Con from 1.35846e-007 to 1.37862e-007
Heightened Def Con from 1.37863e-007 to 1.38863e-007
Heightened Def Con from 1.38863e-007 to 1.39863e-007
Heightened Def Con from 1.39864e-007 to 1.39866e-007
Heightened Def Con from 1.39867e-007 to 1.39992e-007
Heightened Def Con from 1.39993e-007 to 1.40243e-007
Heightened Def Con from 1.4585e-007 to 1.45852e-007
Heightened Def Con from 1.45853e-007 to 1.45979e-007
Heightened Def Con from 1.45994e-007 to 1.45995e-007
Heightened Def Con from 1.45998e-007 to 1.46998e-007
Heightened Def Con from 1.46998e-007 to 1.47123e-007
Heightened Def Con from 1.47123e-007 to 1.47373e-007
Heightened Def Con from 1.47394e-007 to 1.47395e-007
Heightened Def Con from 1.47395e-007 to 1.47399e-007
Heightened Def Con from 1.47406e-007 to 1.47408e-007
Heightened Def Con from 1.47409e-007 to 1.47409e-007
Heightened Def Con from 1.4741e-007 to 1.4741e-007
Heightened Def Con from 1.47411e-007 to 1.47412e-007
Heightened Def Con from 1.47414e-007 to 1.47416e-007
Heightened Def Con from 1.47416e-007 to 1.47418e-007
Heightened Def Con from 1.47418e-007 to 1.47419e-007
Heightened Def Con from 1.4745e-007 to 1.47452e-007
Heightened Def Con from 1.47453e-007 to 1.47453e-007
Heightened Def Con from 1.47454e-007 to 1.47455e-007
Heightened Def Con from 1.47458e-007 to 1.47708e-007
Heightened Def Con from 1.47709e-007 to 1.47711e-007
Heightened Def Con from 1.47712e-007 to 1.47714e-007
Heightened Def Con from 1.47715e-007 to 1.4784e-007
Heightened Def Con from 1.47841e-007 to 1.47841e-007
Heightened Def Con from 1.47841e-007 to 1.48841e-007
Heightened Def Con from 1.48841e-007 to 1.48842e-007
Heightened Def Con from 1.48843e-007 to 1.48844e-007
Heightened Def Con from 1.48845e-007 to 1.48846e-007
Heightened Def Con from 1.48847e-007 to 1.49847e-007
Heightened Def Con from 1.49848e-007 to 1.49848e-007
Heightened Def Con from 1.4985e-007 to 1.49851e-007
Heightened Def Con from 1.49854e-007 to 1.49855e-007
Heightened Def Con from 1.49856e-007 to 1.49872e-007
Heightened Def Con from 1.49872e-007 to 1.49872e-007
Heightened Def Con from 1.49872e-007 to 1.49874e-007
Heightened Def Con from 1.49875e-007 to 1.49877e-007
Heightened Def Con from 1.49877e-007 to 1.49879e-007
Heightened Def Con from 1.4988e-007 to 1.49884e-007
Heightened Def Con from 1.49888e-007 to 1.49888e-007
Heightened Def Con from 1.4989e-007 to 1.49892e-007
Heightened Def Con from 1.49893e-007 to 1.49895e-007
Heightened Def Con from 1.49897e-007 to 1.49898e-007
Heightened Def Con from 1.49898e-007 to 1.499e-007
Heightened Def Con from 1.49901e-007 to 1.49903e-007
Heightened Def Con from 1.49903e-007 to 1.49905e-007
Heightened Def Con from 1.49906e-007 to 1.49908e-007
Heightened Def Con from 1.49909e-007 to 1.49909e-007
Heightened Def Con from 1.4991e-007 to 1.4991e-007
Heightened Def Con from 1.4991e-007 to 1.49925e-007
Heightened Def Con from 1.49926e-007 to 1.49944e-007
Heightened Def Con from 1.49945e-007 to 1.5007e-007
Heightened Def Con from 1.50074e-007 to 1.50076e-007
Heightened Def Con from 1.50076e-007 to 1.50078e-007
Heightened Def Con from 1.50079e-007 to 1.50095e-007
Heightened Def Con from 1.50095e-007 to 1.50095e-007
Heightened Def Con from 1.50096e-007 to 1.50098e-007
Heightened Def Con from 1.50098e-007 to 1.50098e-007
Heightened Def Con from 1.50106e-007 to 1.50108e-007
Heightened Def Con from 1.50109e-007 to 1.50111e-007
Heightened Def Con from 1.50112e-007 to 1.50114e-007
Heightened Def Con from 1.50115e-007 to 1.50115e-007
Heightened Def Con from 1.50117e-007 to 1.50117e-007
Heightened Def Con from 1.50118e-007 to 1.50122e-007
Heightened Def Con from 1.50149e-007 to 1.50151e-007
Heightened Def Con from 1.50152e-007 to 1.50152e-007
Heightened Def Con from 1.50152e-007 to 1.50153e-007
Heightened Def Con from 1.50653e-007 to 1.50655e-007
Heightened Def Con from 1.50655e-007 to 1.5178e-007
Heightened Def Con from 1.5203e-007 to 1.52031e-007
Heightened Def Con from 1.52031e-007 to 1.52033e-007
Heightened Def Con from 1.52034e-007 to 1.52034e-007
Heightened Def Con from 1.52036e-007 to 1.5204e-007
Heightened Def Con from 1.52043e-007 +to 1.52168e-007
Heightened Def Con from 1.52169e-007 to 1.52169e-007
Heightened Def Con from 1.5217e-007 to 1.5217e-007
Heightened Def Con from 1.52175e-007 to 1.52177e-007
Heightened Def Con from 1.52177e-007 to 1.52179e-007
Heightened Def Con from 1.5218e-007 to 1.53195e-007
Heightened Def Con from 1.53207e-007 to 1.53208e-007
Heightened Def Con from 1.53215e-007 to 1.53216e-007
Heightened Def Con from 1.53216e-007 to 1.53217e-007
Heightened Def Con from 1.53221e-007 to 1.53221e-007
Heightened Def Con from 1.53223e-007 to 1.53224e-007
Heightened Def Con from 1.53227e-007 to 1.53227e-007
Heightened Def Con from 1.53228e-007 to 1.53228e-007
Heightened Def Con from 1.5323e-007 to 1.53232e-007
Heightened Def Con from 1.53233e-007 to 1.54233e-007
Heightened Def Con from 1.54234e-007 to 1.54234e-007
Heightened Def Con from 1.54238e-007 to 1.54363e-007
Heightened Def Con from 1.54363e-007 to 1.54364e-007
Heightened Def Con from 1.54367e-007 to 1.54369e-007
Heightened Def Con from 1.5437e-007 to 1.5437e-007
Heightened Def Con from 1.54371e-007 to 1.54371e-007
Heightened Def Con from 1.54371e-007 to 1.54373e-007
Heightened Def Con from 1.54373e-007 to 1.54374e-007
Heightened Def Con from 1.54374e-007 to 1.54374e-007
Heightened Def Con from 1.54375e-007 to 1.54377e-007
Heightened Def Con from 1.54377e-007 to 1.54378e-007
Heightened Def Con from 1.54378e-007 to 1.5438e-007
Heightened Def Con from 1.54381e-007 to 1.54382e-007
Heightened Def Con from 1.54383e-007 to 1.54385e-007
Heightened Def Con from 1.54386e-007 to 1.54388e-007
Heightened Def Con from 1.54389e-007 to 1.54391e-007
Heightened Def Con from 1.54392e-007 to 1.54394e-007
Heightened Def Con from 1.54395e-007 to 1.54397e-007
Heightened Def Con from 1.54398e-007 to 1.54523e-007
Heightened Def Con from 1.54525e-007 to 1.54525e-007
Heightened Def Con from 1.54525e-007 to 1.54525e-007
Heightened Def Con from 1.54525e-007 to 1.54525e-007
Heightened Def Con from 1.54525e-007 to 1.54543e-007
Heightened Def Con from 1.54548e-007 to 1.5455e-007
Heightened Def Con from 1.5455e-007 to 1.54551e-007
Heightened Def Con from 1.54551e-007 to 1.54551e-007
Heightened Def Con from 1.54551e-007 to 1.54553e-007
Heightened Def Con from 1.54553e-007 to 1.54554e-007
Heightened Def Con from 1.54555e-007 to 1.54557e-007
Heightened Def Con from 1.54558e-007 to 1.54558e-007
Heightened Def Con from 1.54559e-007 to 1.54561e-007
Heightened Def Con from 1.54562e-007 to 1.54578e-007
Heightened Def Con from 1.54578e-007 to 1.5458e-007
Heightened Def Con from 1.54582e-007 to 1.54723e-007
Heightened Def Con from 1.54727e-007 to 1.54868e-007
Heightened Def Con from 1.54869e-007 to 1.54869e-007
Heightened Def Con from 1.54869e-007 to 1.54869e-007
Heightened Def Con from 1.54871e-007 to 1.54871e-007
Heightened Def Con from 1.54872e-007 to 1.54874e-007
Heightened Def Con from 1.54875e-007 to 1.54875e-007
Heightened Def Con from 1.54876e-007 to 1.54876e-007
Heightened Def Con from 1.54876e-007 to 1.54877e-007
Heightened Def Con from 1.54877e-007 to 1.54878e-007
Heightened Def Con from 1.54878e-007 to 1.5488e-007
Heightened Def Con from 1.54881e-007 to 1.54883e-007
Heightened Def Con from 1.54884e-007 to 1.55009e-007
Heightened Def Con from 1.5501e-007 to 1.55012e-007
Heightened Def Con from 1.55013e-007 to 1.55014e-007
Heightened Def Con from 1.55016e-007 to 1.55018e-007
Heightened Def Con from 1.55026e-007 to 1.55026e-007
Heightened Def Con from 1.55028e-007 to 1.55043e-007
Heightened Def Con from 1.55045e-007 to 1.55045e-007
Heightened Def Con from 1.55046e-007 to 1.5505e-007
Heightened Def Con from 1.55078e-007 to 1.5508e-007
Heightened Def Con from 1.55081e-007 to 1.55083e-007
Heightened Def Con from 1.55085e-007 to 1.55087e-007
Heightened Def Con from 1.55088e-007 to 1.55089e-007
Heightened Def Con from 1.5509e-007 to 1.55215e-007
Heightened Def Con from 1.55216e-007 to 1.55218e-007
Heightened Def Con from 1.55219e-007 to 1.5522e-007
Heightened Def Con from 1.55221e-007 to 1.55236e-007
Heightened Def Con from 1.55237e-007 to 1.55238e-007
Heightened Def Con from 1.55241e-007 to 1.55257e-007
Heightened Def Con from 1.55258e-007 to 1.55259e-007
Heightened Def Con from 1.5526e-007 to 1.55276e-007
Heightened Def Con from 1.55277e-007 to 1.55279e-007
Heightened Def Con from 1.55279e-007 to 1.5528e-007
Heightened Def Con from 1.55283e-007 to 1.55284e-007
Heightened Def Con from 1.55286e-007 to 1.5529e-007
Heightened Def Con from 1.55293e-007 to 1.55293e-007
Heightened Def Con from 1.55294e-007 to 1.55294e-007
Heightened Def Con from 1.55294e-007 to 1.55295e-007
Heightened Def Con from 1.55296e-007 to 1.55296e-007
Heightened Def Con from 1.55297e-007 to 1.55312e-007
Heightened Def Con from 1.55313e-007 to 1.55314e-007
Heightened Def Con from 1.55315e-007 to 1.55331e-007
Heightened Def Con from 1.55331e-007 to 1.55333e-007
Heightened Def Con from 1.55334e-007 to 1.55336e-007
Heightened Def Con from 1.55337e-007 to 1.55339e-007
Heightened Def Con from 1.55341e-007 to 1.55343e-007
Heightened Def Con from 1.55344e-007 to 1.55348e-007
Heightened Def Con from 1.5535e-007 to 1.55351e-007
Heightened Def Con from 1.55353e-007 to 1.55353e-007
Heightened Def Con from 1.55353e-007 to 1.55353e-007
Heightened Def Con from 1.55354e-007 to 1.55354e-007
Heightened Def Con from 1.55355e-007 to 1.55355e-007
Heightened Def Con from 1.55359e-007 to 1.5536e-007
Heightened Def Con from 1.55362e-007 to 1.55487e-007
Heightened Def Con from 1.55487e-007 to 1.55489e-007
Heightened Def Con from 1.55491e-007 to 1.55492e-007
Heightened Def Con from 1.55493e-007 to 1.55494e-007
Heightened Def Con from 1.55494e-007 to 1.55496e-007
Heightened Def Con from 1.55497e-007 to 1.55497e-007
Heightened Def Con from 1.55499e-007 to 1.55515e-007
Heightened Def Con from 1.55515e-007 to 1.55516e-007
Heightened Def Con from 1.55517e-007 to 1.55519e-007
Heightened Def Con from 1.55521e-007 to 1.55521e-007
Heightened Def Con from 1.55523e-007 to 1.56525e-007
Heightened Def Con from 1.56526e-007 to 1.56526e-007
Heightened Def Con from 1.56527e-007 to 1.56529e-007
Heightened Def Con from 1.5653e-007 to 1.5653e-007
Heightened Def Con from 1.5653e-007 to 1.56532e-007
Heightened Def Con from 1.56532e-007 to 1.56534e-007
Heightened Def Con from 1.56535e-007 to 1.56535e-007
Heightened Def Con from 1.56551e-007 to 1.56553e-007
Heightened Def Con from 1.56553e-007 to 1.56557e-007
Heightened Def Con from 1.56569e-007 to 1.56571e-007
Heightened Def Con from 1.56571e-007 to 1.56571e-007
Heightened Def Con from 1.56571e-007 to 1.56571e-007
Heightened Def Con from 1.56572e-007 to 1.56574e-007
Heightened Def Con from 1.56575e-007 to 1.56575e-007
Heightened Def Con from 1.56576e-007 to 1.56576e-007
Heightened Def Con from 1.56577e-007 to 1.56578e-007
Heightened Def Con from 1.56578e-007 to 1.56579e-007
Heightened Def Con from 1.56586e-007 to 1.5659e-007
Heightened Def Con from 1.56595e-007 to 1.56595e-007
Heightened Def Con from 1.56599e-007 to 1.56614e-007
Heightened Def Con from 1.56615e-007 to 1.56617e-007
Heightened Def Con from 1.56618e-007 to 1.56618e-007
Heightened Def Con from 1.5662e-007 to 1.56624e-007
Heightened Def Con from 1.56683e-007 to 1.56685e-007
Heightened Def Con from 1.56686e-007 to 1.56688e-007
Heightened Def Con from 1.56689e-007 to 1.56691e-007
Heightened Def Con from 1.56692e-007 to 1.56723e-007
Heightened Def Con from 1.56755e-007 to 1.56757e-007
Heightened Def Con from 1.56758e-007 to 1.5676e-007
Heightened Def Con from 1.5676e-007 to 1.56762e-007
Heightened Def Con from 1.56763e-007 to 1.56765e-007
Heightened Def Con from 1.56766e-007 to 1.56768e-007
Heightened Def Con from 1.56768e-007 to 1.56768e-007
Heightened Def Con from 1.56769e-007 to 1.5677e-007
Heightened Def Con from 1.56772e-007 to 1.56787e-007
Heightened Def Con from 1.56787e-007 to 1.57787e-007
Heightened Def Con from 1.57788e-007 to 1.57789e-007
Heightened Def Con from 1.57793e-007 to 1.57793e-007
Heightened Def Con from 1.57795e-007 to 1.5781e-007
Heightened Def Con from 1.57811e-007 to 1.57811e-007
Heightened Def Con from 1.57811e-007 to 1.57952e-007
Heightened Def Con from 1.57981e-007 to 1.58108e-007
Heightened Def Con from 1.5814e-007 to 1.58141e-007
Heightened Def Con from 1.58143e-007 to 1.58143e-007
Heightened Def Con from 1.58143e-007 to 1.58145e-007
Heightened Def Con from 1.58146e-007 to 1.59162e-007
Heightened Def Con from 1.59193e-007 to 1.59193e-007
Heightened Def Con from 1.59195e-007 to 1.59197e-007
Heightened Def Con from 1.59198e-007 to 1.592e-007
Heightened Def Con from 1.592e-007 to 1.59201e-007
Heightened Def Con from 1.59201e-007 to 1.59202e-007
Heightened Def Con from 1.59202e-007 to 1.59202e-007
Heightened Def Con from 1.59203e-007 to 1.59205e-007
Heightened Def Con from 1.59206e-007 to 1.59208e-007
Heightened Def Con from 1.59209e-007 to 1.59334e-007
Heightened Def Con from 1.59335e-007 to 1.59337e-007
Heightened Def Con from 1.59337e-007 to 1.59339e-007
Heightened Def Con from 1.59339e-007 to 1.59339e-007
Heightened Def Con from 1.5934e-007 to 1.5934e-007
Heightened Def Con from 1.5934e-007 to 1.5934e-007
Heightened Def Con from 1.59341e-007 to 1.59372e-007
Heightened Def Con from 1.59373e-007 to 1.59374e-007
Heightened Def Con from 1.59375e-007 to 1.59391e-007
Heightened Def Con from 1.59392e-007 to 1.59393e-007
Heightened Def Con from 1.59394e-007 to 1.59394e-007
Heightened Def Con from 1.59403e-007 to 1.59418e-007
Heightened Def Con from 1.59419e-007 to 1.5956e-007
Heightened Def Con from 1.59561e-007 to 1.59563e-007
Heightened Def Con from 1.59565e-007 to 1.59565e-007
Heightened Def Con from 1.59566e-007 to 1.60566e-007
Heightened Def Con from 1.60567e-007 to 1.60569e-007
Heightened Def Con from 1.6057e-007 to 1.61695e-007
Heightened Def Con from 1.61696e-007 to 1.61821e-007
Heightened Def Con from 1.61822e-007 to 1.61824e-007
Heightened Def Con from 1.61825e-007 to 1.61825e-007
Heightened Def Con from 1.61825e-007 to 1.6195e-007
Heightened Def Con from 1.61951e-007 to 1.62076e-007
Heightened Def Con from 1.62077e-007 to 1.62079e-007
Heightened Def Con from 1.6208e-007 to 1.62082e-007
Heightened Def Con from 1.62083e-007 to 1.62087e-007
Heightened Def Con from 1.62088e-007 to 1.62088e-007
Heightened Def Con from 1.62088e-007 to 1.62215e-007
Heightened Def Con from 1.62227e-007 to 1.63227e-007
Heightened Def Con from 1.63229e-007 to 1.6323e-007
Heightened Def Con from 1.63231e-007 to 1.63231e-007
Heightened Def Con from 1.63233e-007 to 1.64358e-007
Heightened Def Con from 1.64631e-007 to 1.64663e-007
Heightened Def Con from 1.64694e-007 to 1.64694e-007
Heightened Def Con from 1.64699e-007 to 1.64824e-007
Heightened Def Con from 1.64825e-007 to 1.64825e-007
Heightened Def Con from 1.64826e-007 to 1.64826e-007
Heightened Def Con from 1.64826e-007 to 1.65076e-007
Heightened Def Con from 1.65828e-007 to 1.65828e-007
Heightened Def Con from 1.65829e-007 to 1.6586e-007
Heightened Def Con from 1.65892e-007 to 1.65893e-007
Heightened Def Con from 1.65893e-007 to 1.65894e-007
Heightened Def Con from 1.65901e-007 to 1.66901e-007
Heightened Def Con from 1.66903e-007 to 1.66919e-007
Heightened Def Con from 1.66921e-007 to 1.66921e-007
Heightened Def Con from 1.66923e-007 to 1.68923e-007
Heightened Def Con from 1.77186e-007 to 1.77186e-007
Heightened Def Con from 1.77187e-007 to 1.77187e-007
Heightened Def Con from 1.77188e-007 to 1.77188e-007
Heightened Def Con from 1.77188e-007 to 1.77189e-007
Heightened Def Con from 1.7719e-007 to 1.77191e-007
Heightened Def Con from 1.77191e-007 to 1.77192e-007
Heightened Def Con from 1.77193e-007 to 1.77194e-007
Heightened Def Con from 1.77197e-007 to 1.77198e-007
Heightened Def Con from 1.772e-007 to 1.77202e-007
Heightened Def Con from 1.77202e-007 to 1.77203e-007
Heightened Def Con from 1.77203e-007 to 1.77219e-007
Heightened Def Con from 1.7722e-007 to 1.77221e-007
Heightened Def Con from 1.77222e-007 to 1.7724e-007
Heightened Def Con from 1.77241e-007 to 1.77241e-007
Heightened Def Con from 1.77241e-007 to 1.77241e-007
Heightened Def Con from 1.77243e-007 to 1.77243e-007
Heightened Def Con from 1.77247e-007 to 1.77251e-007
Heightened Def Con from 1.77255e-007 to 1.77256e-007
Heightened Def Con from 1.77257e-007 to 1.77259e-007
Heightened Def Con from 1.77259e-007 to 1.78259e-007
Heightened Def Con from 1.7826e-007 to 1.78385e-007
Heightened Def Con from 1.78386e-007 to 1.78402e-007
Heightened Def Con from 1.78405e-007 to 1.78405e-007
Heightened Def Con from 1.78406e-007 to 1.78531e-007
Heightened Def Con from 1.78532e-007 to 1.78532e-007
Heightened Def Con from 1.78534e-007 to 1.78534e-007
Heightened Def Con from 1.78565e-007 to 1.78566e-007
Heightened Def Con from 1.78567e-007 to 1.78569e-007
Heightened Def Con from 1.78569e-007 to 1.78569e-007
Heightened Def Con from 1.78569e-007 to 1.78569e-007
Heightened Def Con from 1.7857e-007 to 1.78572e-007
Heightened Def Con from 1.78572e-007 to 1.78588e-007
Heightened Def Con from 1.78589e-007 to 1.78589e-007
Heightened Def Con from 1.7859e-007 to 1.78592e-007
Heightened Def Con from 1.78593e-007 to 1.78843e-007
Heightened Def Con from 1.78848e-007 to 1.78879e-007
Heightened Def Con from 1.78883e-007 to 1.78883e-007
Heightened Def Con from 1.78885e-007 to 1.78885e-007
Heightened Def Con from 1.78886e-007 to 1.78886e-007
Heightened Def Con from 1.78887e-007 to 1.78903e-007
Heightened Def Con from 1.78903e-007 to 1.78905e-007
Heightened Def Con from 1.78906e-007 to 1.78906e-007
Heightened Def Con from 1.78907e-007 to 1.79032e-007
Heightened Def Con from 1.79033e-007 to 1.79035e-007
Heightened Def Con from 1.79036e-007 to 1.79037e-007
Heightened Def Con from 1.79038e-007 to 1.7904e-007
Heightened Def Con from 1.79041e-007 to 1.79042e-007
Heightened Def Con from 1.79043e-007 to 1.79168e-007
Heightened Def Con from 1.79169e-007 to 1.79419e-007
Heightened Def Con from 1.79669e-007 to 1.79673e-007
Heightened Def Con from 1.79673e-007 to 1.79677e-007
Heightened Def Con from 1.79689e-007 to 1.79689e-007
Heightened Def Con from 1.7969e-007 to 1.7969e-007
Heightened Def Con from 1.79691e-007 to 1.79693e-007
Heightened Def Con from 1.79693e-007 to 1.79694e-007
Heightened Def Con from 1.79695e-007 to 1.79695e-007
Heightened Def Con from 1.79696e-007 to 1.79696e-007
Heightened Def Con from 1.79697e-007 to 1.79698e-007
Heightened Def Con from 1.79701e-007 to 1.79701e-007
Heightened Def Con from 1.79702e-007 to 1.79704e-007
Heightened Def Con from 1.79705e-007 to 1.79707e-007
Heightened Def Con from 1.79709e-007 to 1.79959e-007
Heightened Def Con from 1.79991e-007 to 1.80007e-007
Heightened Def Con from 1.80007e-007 to 1.80009e-007
Heightened Def Con from 1.8001e-007 to 1.80012e-007
Heightened Def Con from 1.80013e-007 to 1.80013e-007
Heightened Def Con from 1.80013e-007 to 1.80263e-007
Heightened Def Con from 1.80264e-007 to 1.80265e-007
Heightened Def Con from 1.80272e-007 to 1.80397e-007
Heightened Def Con from 1.80398e-007 to 1.80398e-007
Heightened Def Con from 1.804e-007 to 1.80402e-007
Heightened Def Con from 1.80403e-007 to 1.80404e-007
Heightened Def Con from 1.80407e-007 to 1.80411e-007
Heightened Def Con from 1.80415e-007 to 1.80415e-007
Heightened Def Con from 1.80416e-007 to 1.80416e-007
Heightened Def Con from 1.80421e-007 to 1.80421e-007
Heightened Def Con from 1.80421e-007 to 1.80421e-007
Heightened Def Con from 1.80421e-007 to 1.80421e-007
Heightened Def Con from 1.80422e-007 to 1.80423e-007
Heightened Def Con from 1.80424e-007 to 1.80426e-007
Heightened Def Con from 1.80426e-007 to 1.80442e-007
Heightened Def Con from 1.80443e-007 to 1.80443e-007
Heightened Def Con from 1.80445e-007 to 1.80445e-007
Heightened Def Con from 1.80446e-007 to 1.80571e-007
Heightened Def Con from 1.80573e-007 to 1.80573e-007
Heightened Def Con from 1.80573e-007 to 1.80823e-007
Heightened Def Con from 1.81073e-007 to 1.82073e-007
Heightened Def Con from 1.82074e-007 to 1.83089e-007
Heightened Def Con from 1.83091e-007 to 1.83091e-007
Heightened Def Con from 1.83091e-007 to 1.83091e-007
Heightened Def Con from 1.83091e-007 to 1.89091e-007
Heightened Def Con from 3.84483e-005 to 3.84493e-005
Heightened Def Con from 3.84493e-005 to 3.84514e-005
Heightened Def Con from 3.84515e-005 to 3.84535e-005
Heightened Def Con from 3.84535e-005 to 3.84565e-005
Heightened Def Con from 4.56516e-005 to 4.56517e-005
Heightened Def Con from 4.56522e-005 to 4.56522e-005
Heightened Def Con from 4.56522e-005 to 4.56522e-005
Heightened Def Con from 4.56522e-005 to 4.56552e-005
Heightened Def Con from 4.56967e-005 to 4.56997e-005
Heightened Def Con from 4.58752e-005 to 4.58782e-005
Heightened Def Con from 4.5919e-005 to 4.59194e-005
Heightened Def Con from 4.59198e-005 to 4.59198e-005
Heightened Def Con from 4.59198e-005 to 4.59228e-005
Heightened Def Con from 4.59644e-005 to 4.59644e-005
Heightened Def Con from 4.59644e-005 to 4.59674e-005
Heightened Def Con from 4.6009e-005 to 4.6012e-005
Heightened Def Con from 4.61428e-005 to 4.61458e-005
Heightened Def Con from 4.61873e-005 to 4.61873e-005
Heightened Def Con from 4.61873e-005 to 4.61873e-005
Heightened Def Con from 4.61873e-005 to 4.61903e-005
Heightened Def Con from 4.62756e-005 to 4.6276e-005
Heightened Def Con from 4.62765e-005 to 4.62795e-005
Heightened Def Con from 4.63657e-005 to 4.63667e-005
Heightened Def Con from 4.65887e-005 to 4.65887e-005
Heightened Def Con from 4.65887e-005 to 4.65917e-005
Heightened Def Con from 4.66332e-005 to 4.66362e-005
Heightened Def Con from 4.66777e-005 to 4.66778e-005
Heightened Def Con from 4.66778e-005 to 4.66779e-005
Heightened Def Con from 4.66779e-005 to 4.66779e-005
Heightened Def Con from 4.66779e-005 to 4.66779e-005
Heightened Def Con from 4.66779e-005 to 4.66779e-005
Heightened Def Con from 4.66779e-005 to 4.66809e-005
Heightened Def Con from 4.67669e-005 to 4.67669e-005
Heightened Def Con from 4.6767e-005 to 4.67671e-005
Heightened Def Con from 4.67671e-005 to 4.67701e-005
Heightened Def Con from 4.69008e-005 to 4.69019e-005
Heightened Def Con from 4.69452e-005 to 4.69452e-005
Heightened Def Con from 4.69455e-005 to 4.69455e-005
Heightened Def Con from 4.69455e-005 to 4.69456e-005
Heightened Def Con from 4.69456e-005 to 4.69456e-005
Heightened Def Con from 4.69456e-005 to 4.69456e-005
Heightened Def Con from 4.69456e-005 to 4.69456e-005
Heightened Def Con from 4.69456e-005 to 4.69468e-005
Heightened Def Con from 4.69898e-005 to 4.69899e-005
Heightened Def Con from 4.69899e-005 to 4.69899e-005
Heightened Def Con from 4.69899e-005 to 4.69929e-005
Heightened Def Con from 4.70774e-005 to 4.70784e-005
Heightened Def Con from 4.7079e-005 to 4.7079e-005
Heightened Def Con from 4.70791e-005 to 4.70791e-005
Heightened Def Con from 4.70791e-005 to 4.70791e-005
Heightened Def Con from 4.70791e-005 to 4.70791e-005
Heightened Def Con from 4.70791e-005 to 4.70813e-005
Heightened Def Con from 4.71235e-005 to 4.71237e-005
Heightened Def Con from 4.71237e-005 to 4.71237e-005
Heightened Def Con from 4.71237e-005 to 4.71237e-005
Heightened Def Con from 4.71237e-005 to 4.71237e-005
Heightened Def Con from 4.71237e-005 to 4.71237e-005
Heightened Def Con from 4.71238e-005 to 4.71238e-005
Heightened Def Con from 4.71238e-005 to 4.71238e-005
Heightened Def Con from 4.71238e-005 to 4.71258e-005
Heightened Def Con from 4.71259e-005 to 4.71289e-005
Heightened Def Con from 4.72126e-005 to 4.72126e-005
Heightened Def Con from 4.72126e-005 to 4.72127e-005
Heightened Def Con from 4.72128e-005 to 4.72138e-005
Heightened Def Con from 4.72554e-005 to 4.72554e-005
Heightened Def Con from 4.72554e-005 to 4.72564e-005
Heightened Def Con from 4.72571e-005 to 4.72572e-005
Heightened Def Con from 4.72572e-005 to 4.72573e-005
Heightened Def Con from 4.72573e-005 to 4.72573e-005
Heightened Def Con from 4.72574e-005 to 4.72574e-005
Heightened Def Con from 4.72574e-005 to 4.72574e-005
Heightened Def Con from 4.72574e-005 to 4.72574e-005
Heightened Def Con from 4.72574e-005 to 4.72585e-005
Heightened Def Con from 4.74354e-005 to 4.74355e-005
Heightened Def Con from 4.74355e-005 to 4.74365e-005
Heightened Def Con from 4.74801e-005 to 4.74802e-005
Heightened Def Con from 4.74802e-005 to 4.74814e-005
Heightened Def Con from 4.75243e-005 to 4.75246e-005
Heightened Def Con from 4.75247e-005 to 4.75268e-005
Heightened Def Con from 4.75693e-005 to 4.75693e-005
Heightened Def Con from 4.75693e-005 to 4.75694e-005
Heightened Def Con from 4.75694e-005 to 4.75694e-005
Heightened Def Con from 4.75694e-005 to 4.75694e-005
Heightened Def Con from 4.75694e-005 to 4.75694e-005
Heightened Def Con from 4.75694e-005 to 4.75704e-005
Heightened Def Con from 4.7572e-005 to 4.7575e-005
Heightened Def Con from 4.76137e-005 to 4.76137e-005
Heightened Def Con from 4.76137e-005 to 4.76137e-005
Heightened Def Con from 4.76138e-005 to 4.76168e-005
Heightened Def Con from 4.7658e-005 to 4.76581e-005
Heightened Def Con from 4.76581e-005 to 4.76581e-005
Heightened Def Con from 4.76582e-005 to 4.76582e-005
Heightened Def Con from 4.76582e-005 to 4.76582e-005
Heightened Def Con from 4.76583e-005 to 4.76583e-005
Heightened Def Con from 4.76583e-005 to 4.76583e-005
Heightened Def Con from 4.76583e-005 to 4.76583e-005
Heightened Def Con from 4.76583e-005 to 4.76583e-005
Heightened Def Con from 4.76583e-005 to 4.76584e-005
Heightened Def Con from 4.76584e-005 to 4.76584e-005
Heightened Def Con from 4.76584e-005 to 4.76584e-005
Heightened Def Con from 4.76584e-005 to 4.76614e-005
Heightened Def Con from 4.77e-005 to 4.77011e-005
Heightened Def Con from 4.77022e-005 to 4.77022e-005
Heightened Def Con from 4.77025e-005 to 4.77025e-005
Heightened Def Con from 4.77027e-005 to 4.77028e-005
Heightened Def Con from 4.77028e-005 to 4.77029e-005
Heightened Def Con from 4.77029e-005 to 4.77029e-005
Heightened Def Con from 4.77029e-005 to 4.77029e-005
Heightened Def Con from 4.77029e-005 to 4.77029e-005
Heightened Def Con from 4.77029e-005 to 4.77029e-005
Heightened Def Con from 4.77029e-005 to 4.77029e-005
Heightened Def Con from 4.77029e-005 to 4.77029e-005
Heightened Def Con from 4.7703e-005 to 4.77051e-005
Heightened Def Con from 4.7747e-005 to 4.7747e-005
Heightened Def Con from 4.77471e-005 to 4.77471e-005
Heightened Def Con from 4.77472e-005 to 4.77472e-005
Heightened Def Con from 4.77473e-005 to 4.77473e-005
Heightened Def Con from 4.77473e-005 to 4.77473e-005
Heightened Def Con from 4.77473e-005 to 4.77473e-005
Heightened Def Con from 4.77474e-005 to 4.77474e-005
Heightened Def Con from 4.77474e-005 to 4.77475e-005
Heightened Def Con from 4.77475e-005 to 4.77475e-005
Heightened Def Con from 4.77475e-005 to 4.77485e-005
Heightened Def Con from 4.77892e-005 to 4.77892e-005
Heightened Def Con from 4.77892e-005 to 4.77892e-005
Heightened Def Con from 4.77892e-005 to 4.77892e-005
Heightened Def Con from 4.77892e-005 to 4.77903e-005
Heightened Def Con from 4.77915e-005 to 4.77916e-005
Heightened Def Con from 4.77919e-005 to 4.77919e-005
Heightened Def Con from 4.77919e-005 to 4.77919e-005
Heightened Def Con from 4.7792e-005 to 4.7792e-005
Heightened Def Con from 4.7792e-005 to 4.7792e-005
Heightened Def Con from 4.7792e-005 to 4.7792e-005
Heightened Def Con from 4.7792e-005 to 4.7792e-005
Heightened Def Con from 4.7792e-005 to 4.7793e-005
Heightened Def Con from 4.77932e-005 to 4.77932e-005
Heightened Def Con from 4.78361e-005 to 4.78361e-005
Heightened Def Con from 4.78363e-005 to 4.78363e-005
Heightened Def Con from 4.78363e-005 to 4.78363e-005
Heightened Def Con from 4.78364e-005 to 4.78364e-005
Heightened Def Con from 4.78364e-005 to 4.78374e-005
Heightened Def Con from 4.78374e-005 to 4.78385e-005
Heightened Def Con from 4.784e-005 to 4.78411e-005
Heightened Def Con from 4.78805e-005 to 4.78805e-005
Heightened Def Con from 4.78807e-005 to 4.78809e-005
Heightened Def Con from 4.78809e-005 to 4.78809e-005
Heightened Def Con from 4.7881e-005 to 4.7881e-005
Heightened Def Con from 4.7881e-005 to 4.7882e-005
Heightened Def Con from 4.79252e-005 to 4.79253e-005
Heightened Def Con from 4.79254e-005 to 4.79264e-005
Heightened Def Con from 4.79265e-005 to 4.79265e-005
Heightened Def Con from 4.79265e-005 to 4.79265e-005
Heightened Def Con from 4.79265e-005 to 4.79265e-005
Heightened Def Con from 4.79265e-005 to 4.79265e-005
Heightened Def Con from 4.79265e-005 to 4.79265e-005
Heightened Def Con from 4.79266e-005 to 4.79267e-005
Heightened Def Con from 4.79267e-005 to 4.79288e-005
Heightened Def Con from 4.79296e-005 to 4.79317e-005
Heightened Def Con from 4.80138e-005 to 4.80139e-005
Heightened Def Con from 4.80145e-005 to 4.80147e-005
Heightened Def Con from 4.80147e-005 to 4.80147e-005
Heightened Def Con from 4.80147e-005 to 4.80157e-005
Heightened Def Con from 4.80158e-005 to 4.8016e-005
Heightened Def Con from 4.80163e-005 to 4.80163e-005
Heightened Def Con from 4.80187e-005 to 4.80217e-005
Heightened Def Con from 4.80555e-005 to 4.80576e-005
Heightened Def Con from 4.80587e-005 to 4.80587e-005
Heightened Def Con from 4.80587e-005 to 4.80587e-005
Heightened Def Con from 4.80588e-005 to 4.80588e-005
Heightened Def Con from 4.80588e-005 to 4.80588e-005
Heightened Def Con from 4.80589e-005 to 4.80591e-005
Heightened Def Con from 4.80591e-005 to 4.80601e-005
Heightened Def Con from 4.80601e-005 to 4.80601e-005
Heightened Def Con from 4.80601e-005 to 4.80601e-005
Heightened Def Con from 4.80601e-005 to 4.80601e-005
Heightened Def Con from 4.80601e-005 to 4.80601e-005
Heightened Def Con from 4.80602e-005 to 4.80602e-005
Heightened Def Con from 4.80602e-005 to 4.80603e-005
Heightened Def Con from 4.80603e-005 to 4.80603e-005
Heightened Def Con from 4.80603e-005 to 4.80603e-005
Heightened Def Con from 4.80604e-005 to 4.80604e-005
Heightened Def Con from 4.80605e-005 to 4.80605e-005
Heightened Def Con from 4.81033e-005 to 4.81033e-005
Heightened Def Con from 4.81034e-005 to 4.81034e-005
Heightened Def Con from 4.81035e-005 to 4.81036e-005
Heightened Def Con from 4.81037e-005 to 4.81037e-005
Heightened Def Con from 4.81037e-005 to 4.81037e-005
Heightened Def Con from 4.81037e-005 to 4.81037e-005
Heightened Def Con from 4.81037e-005 to 4.81038e-005
Heightened Def Con from 4.81038e-005 to 4.81048e-005
Heightened Def Con from 4.81048e-005 to 4.81069e-005
Heightened Def Con from 4.81079e-005 to 4.81109e-005
Heightened Def Con from 4.81478e-005 to 4.81488e-005
Heightened Def Con from 4.81488e-005 to 4.81488e-005
Heightened Def Con from 4.81488e-005 to 4.81489e-005
Heightened Def Con from 4.81489e-005 to 4.8149e-005
Heightened Def Con from 4.8149e-005 to 4.81491e-005
Heightened Def Con from 4.81491e-005 to 4.81492e-005
Heightened Def Con from 4.81492e-005 to 4.81513e-005
Heightened Def Con from 4.8192e-005 to 4.81921e-005
Heightened Def Con from 4.81922e-005 to 4.81922e-005
Heightened Def Con from 4.81922e-005 to 4.81923e-005
Heightened Def Con from 4.81923e-005 to 4.81923e-005
Heightened Def Con from 4.81924e-005 to 4.81924e-005
Heightened Def Con from 4.81924e-005 to 4.81924e-005
Heightened Def Con from 4.81924e-005 to 4.81924e-005
Heightened Def Con from 4.81925e-005 to 4.81926e-005
Heightened Def Con from 4.81926e-005 to 4.81926e-005
Heightened Def Con from 4.81926e-005 to 4.81926e-005
Heightened Def Con from 4.81927e-005 to 4.81927e-005
Heightened Def Con from 4.81927e-005 to 4.81927e-005
Heightened Def Con from 4.81927e-005 to 4.81927e-005
Heightened Def Con from 4.81927e-005 to 4.81927e-005
Heightened Def Con from 4.81927e-005 to 4.81927e-005
Heightened Def Con from 4.81927e-005 to 4.81927e-005
Heightened Def Con from 4.81927e-005 to 4.81927e-005
Heightened Def Con from 4.81927e-005 to 4.81927e-005
Heightened Def Con from 4.81927e-005 to 4.81927e-005
Heightened Def Con from 4.81927e-005 to 4.81927e-005
Heightened Def Con from 4.81927e-005 to 4.81927e-005
Heightened Def Con from 4.81927e-005 to 4.81927e-005
Heightened Def Con from 4.81927e-005 to 4.81937e-005
Heightened Def Con from 4.8194e-005 to 4.8194e-005
Heightened Def Con from 4.8194e-005 to 4.81942e-005
Heightened Def Con from 4.81973e-005 to 4.82003e-005
Heightened Def Con from 4.82328e-005 to 4.8233e-005
Heightened Def Con from 4.8233e-005 to 4.8233e-005
Heightened Def Con from 4.8233e-005 to 4.8233e-005
Heightened Def Con from 4.8233e-005 to 4.8235e-005
Heightened Def Con from 4.82364e-005 to 4.82364e-005
Heightened Def Con from 4.82369e-005 to 4.82369e-005
Heightened Def Con from 4.82369e-005 to 4.82369e-005
Heightened Def Con from 4.82369e-005 to 4.82369e-005
Heightened Def Con from 4.82369e-005 to 4.8237e-005
Heightened Def Con from 4.8237e-005 to 4.8237e-005
Heightened Def Con from 4.8237e-005 to 4.82371e-005
Heightened Def Con from 4.82371e-005 to 4.82371e-005
Heightened Def Con from 4.82371e-005 to 4.82371e-005
Heightened Def Con from 4.82371e-005 to 4.82371e-005
Heightened Def Con from 4.82371e-005 to 4.82371e-005
Heightened Def Con from 4.82371e-005 to 4.82371e-005
Heightened Def Con from 4.82372e-005 to 4.82373e-005
Heightened Def Con from 4.82373e-005 to 4.82373e-005
Heightened Def Con from 4.82373e-005 to 4.82373e-005
Heightened Def Con from 4.82373e-005 to 4.82373e-005
Heightened Def Con from 4.82373e-005 to 4.82373e-005
Heightened Def Con from 4.82373e-005 to 4.82373e-005
Heightened Def Con from 4.82373e-005 to 4.82373e-005
Heightened Def Con from 4.82373e-005 to 4.82373e-005
Heightened Def Con from 4.82373e-005 to 4.82373e-005
Heightened Def Con from 4.82373e-005 to 4.82373e-005
Heightened Def Con from 4.82373e-005 to 4.82373e-005
Heightened Def Con from 4.82373e-005 to 4.82373e-005
Heightened Def Con from 4.82373e-005 to 4.82373e-005
Heightened Def Con from 4.82373e-005 to 4.82373e-005
Heightened Def Con from 4.82373e-005 to 4.82373e-005
Heightened Def Con from 4.82373e-005 to 4.82403e-005
Heightened Def Con from 4.8281e-005 to 4.8281e-005
Heightened Def Con from 4.82812e-005 to 4.82812e-005
Heightened Def Con from 4.82813e-005 to 4.82813e-005
Heightened Def Con from 4.82815e-005 to 4.82815e-005
Heightened Def Con from 4.82815e-005 to 4.82815e-005
Heightened Def Con from 4.82815e-005 to 4.82815e-005
Heightened Def Con from 4.82816e-005 to 4.82816e-005
Heightened Def Con from 4.82816e-005 to 4.82816e-005
Heightened Def Con from 4.82816e-005 to 4.82816e-005
Heightened Def Con from 4.82816e-005 to 4.82816e-005
Heightened Def Con from 4.82816e-005 to 4.82816e-005
Heightened Def Con from 4.82816e-005 to 4.82816e-005
Heightened Def Con from 4.82816e-005 to 4.82816e-005
Heightened Def Con from 4.82817e-005 to 4.82817e-005
Heightened Def Con from 4.82817e-005 to 4.82817e-005
Heightened Def Con from 4.82817e-005 to 4.82817e-005
Heightened Def Con from 4.82817e-005 to 4.82818e-005
Heightened Def Con from 4.82818e-005 to 4.82818e-005
Heightened Def Con from 4.82818e-005 to 4.82818e-005
Heightened Def Con from 4.82818e-005 to 4.82818e-005
Heightened Def Con from 4.82818e-005 to 4.82818e-005
Heightened Def Con from 4.82818e-005 to 4.82818e-005
Heightened Def Con from 4.82818e-005 to 4.82838e-005
Heightened Def Con from 4.82868e-005 to 4.82898e-005
Heightened Def Con from 4.83217e-005 to 4.83217e-005
Heightened Def Con from 4.83217e-005 to 4.83247e-005
Heightened Def Con from 4.83255e-005 to 4.83255e-005
Heightened Def Con from 4.83258e-005 to 4.83258e-005
Heightened Def Con from 4.83259e-005 to 4.83259e-005
Heightened Def Con from 4.8326e-005 to 4.8326e-005
Heightened Def Con from 4.8326e-005 to 4.8326e-005
Heightened Def Con from 4.83261e-005 to 4.83261e-005
Heightened Def Con from 4.83261e-005 to 4.83261e-005
Heightened Def Con from 4.83261e-005 to 4.83261e-005
Heightened Def Con from 4.83262e-005 to 4.83262e-005
Heightened Def Con from 4.83262e-005 to 4.83262e-005
Heightened Def Con from 4.83262e-005 to 4.83263e-005
Heightened Def Con from 4.83263e-005 to 4.83263e-005
Heightened Def Con from 4.83263e-005 to 4.83263e-005
Heightened Def Con from 4.83263e-005 to 4.83263e-005
Heightened Def Con from 4.83263e-005 to 4.83263e-005
Heightened Def Con from 4.83263e-005 to 4.83263e-005
Heightened Def Con from 4.83263e-005 to 4.83263e-005
Heightened Def Con from 4.83263e-005 to 4.83263e-005
Heightened Def Con from 4.83263e-005 to 4.83293e-005
Heightened Def Con from 4.83699e-005 to 4.83699e-005
Heightened Def Con from 4.837e-005 to 4.837e-005
Heightened Def Con from 4.83702e-005 to 4.83702e-005
Heightened Def Con from 4.83704e-005 to 4.83705e-005
Heightened Def Con from 4.83706e-005 to 4.83706e-005
Heightened Def Con from 4.83707e-005 to 4.83707e-005
Heightened Def Con from 4.83707e-005 to 4.83707e-005
Heightened Def Con from 4.83707e-005 to 4.83708e-005
Heightened Def Con from 4.83708e-005 to 4.83708e-005
Heightened Def Con from 4.83708e-005 to 4.83708e-005
Heightened Def Con from 4.83708e-005 to 4.83708e-005
Heightened Def Con from 4.83708e-005 to 4.83709e-005
Heightened Def Con from 4.83709e-005 to 4.83709e-005
Heightened Def Con from 4.83709e-005 to 4.83709e-005
Heightened Def Con from 4.83709e-005 to 4.83709e-005
Heightened Def Con from 4.83709e-005 to 4.8371e-005
Heightened Def Con from 4.8371e-005 to 4.8371e-005
Heightened Def Con from 4.8371e-005 to 4.8371e-005
Heightened Def Con from 4.8371e-005 to 4.8371e-005
Heightened Def Con from 4.8371e-005 to 4.83721e-005
Heightened Def Con from 4.83722e-005 to 4.83722e-005
Heightened Def Con from 4.83722e-005 to 4.83722e-005
Heightened Def Con from 4.83722e-005 to 4.83723e-005
Heightened Def Con from 4.83723e-005 to 4.83725e-005
Heightened Def Con from 4.83761e-005 to 4.83782e-005
Heightened Def Con from 4.84145e-005 to 4.84145e-005
Heightened Def Con from 4.84147e-005 to 4.84147e-005
Heightened Def Con from 4.84147e-005 to 4.84147e-005
Heightened Def Con from 4.84148e-005 to 4.84149e-005
Heightened Def Con from 4.84149e-005 to 4.84149e-005
Heightened Def Con from 4.84149e-005 to 4.84149e-005
Heightened Def Con from 4.8415e-005 to 4.8415e-005
Heightened Def Con from 4.8415e-005 to 4.8415e-005
Heightened Def Con from 4.8415e-005 to 4.8415e-005
Heightened Def Con from 4.8415e-005 to 4.8415e-005
Heightened Def Con from 4.8415e-005 to 4.8415e-005
Heightened Def Con from 4.84151e-005 to 4.84151e-005
Heightened Def Con from 4.84151e-005 to 4.84151e-005
Heightened Def Con from 4.84151e-005 to 4.84151e-005
Heightened Def Con from 4.84151e-005 to 4.84151e-005
Heightened Def Con from 4.84151e-005 to 4.84151e-005
Heightened Def Con from 4.84151e-005 to 4.84151e-005
Heightened Def Con from 4.84151e-005 to 4.84152e-005
Heightened Def Con from 4.84152e-005 to 4.84152e-005
Heightened Def Con from 4.84152e-005 to 4.84152e-005
Heightened Def Con from 4.84152e-005 to 4.84152e-005
Heightened Def Con from 4.84152e-005 to 4.84182e-005
Heightened Def Con from 4.84613e-005 to 4.84613e-005
Heightened Def Con from 4.84613e-005 to 4.84613e-005
Heightened Def Con from 4.84614e-005 to 4.84614e-005
Heightened Def Con from 4.84614e-005 to 4.84614e-005
Heightened Def Con from 4.84615e-005 to 4.84615e-005
Heightened Def Con from 4.84621e-005 to 4.84622e-005
Heightened Def Con from 4.84622e-005 to 4.84624e-005
Heightened Def Con from 4.84656e-005 to 4.84667e-005
Heightened Def Con from 4.85034e-005 to 4.85036e-005
Heightened Def Con from 4.85038e-005 to 4.85038e-005
Heightened Def Con from 4.85038e-005 to 4.8504e-005
Heightened Def Con from 4.8504e-005 to 4.8504e-005
Heightened Def Con from 4.85041e-005 to 4.85041e-005
Heightened Def Con from 4.85041e-005 to 4.85041e-005
Heightened Def Con from 4.85041e-005 to 4.85041e-005
Heightened Def Con from 4.85041e-005 to 4.85041e-005
Heightened Def Con from 4.85041e-005 to 4.85041e-005
Heightened Def Con from 4.85041e-005 to 4.85041e-005
Heightened Def Con from 4.85042e-005 to 4.85042e-005
Heightened Def Con from 4.85042e-005 to 4.85042e-005
Heightened Def Con from 4.85042e-005 to 4.85042e-005
Heightened Def Con from 4.85042e-005 to 4.85042e-005
Heightened Def Con from 4.85043e-005 to 4.85043e-005
Heightened Def Con from 4.85043e-005 to 4.85043e-005
Heightened Def Con from 4.85043e-005 to 4.85043e-005
Heightened Def Con from 4.85043e-005 to 4.85043e-005
Heightened Def Con from 4.85043e-005 to 4.85053e-005
Heightened Def Con from 4.85053e-005 to 4.85054e-005
Heightened Def Con from 4.85054e-005 to 4.85075e-005
Heightened Def Con from 4.85483e-005 to 4.85483e-005
Heightened Def Con from 4.85485e-005 to 4.85486e-005
Heightened Def Con from 4.85486e-005 to 4.85486e-005
Heightened Def Con from 4.85487e-005 to 4.85487e-005
Heightened Def Con from 4.85487e-005 to 4.85487e-005
Heightened Def Con from 4.85487e-005 to 4.85487e-005
Heightened Def Con from 4.85487e-005 to 4.85488e-005
Heightened Def Con from 4.85489e-005 to 4.85489e-005
Heightened Def Con from 4.85489e-005 to 4.85489e-005
Heightened Def Con from 4.85489e-005 to 4.85489e-005
Heightened Def Con from 4.85489e-005 to 4.85489e-005
Heightened Def Con from 4.85489e-005 to 4.8549e-005
Heightened Def Con from 4.8549e-005 to 4.8549e-005
Heightened Def Con from 4.8549e-005 to 4.8549e-005
Heightened Def Con from 4.8549e-005 to 4.8549e-005
Heightened Def Con from 4.8549e-005 to 4.8549e-005
Heightened Def Con from 4.8549e-005 to 4.8549e-005
Heightened Def Con from 4.8549e-005 to 4.85492e-005
Heightened Def Con from 4.85492e-005 to 4.85492e-005
Heightened Def Con from 4.85492e-005 to 4.85492e-005
Heightened Def Con from 4.85492e-005 to 4.85492e-005
Heightened Def Con from 4.85492e-005 to 4.85492e-005
Heightened Def Con from 4.85492e-005 to 4.85492e-005
Heightened Def Con from 4.85492e-005 to 4.85492e-005
Heightened Def Con from 4.85492e-005 to 4.85492e-005
Heightened Def Con from 4.85492e-005 to 4.85492e-005
Heightened Def Con from 4.85492e-005 to 4.85492e-005
Heightened Def Con from 4.85492e-005 to 4.85492e-005
Heightened Def Con from 4.85492e-005 to 4.85492e-005
Heightened Def Con from 4.85492e-005 to 4.85492e-005
Heightened Def Con from 4.85492e-005 to 4.85502e-005
Heightened Def Con from 4.85502e-005 to 4.85512e-005
Heightened Def Con from 4.85513e-005 to 4.85525e-005
Heightened Def Con from 4.85879e-005 to 4.85879e-005
Heightened Def Con from 4.85879e-005 to 4.85909e-005
Heightened Def Con from 4.85928e-005 to 4.85928e-005
Heightened Def Con from 4.85928e-005 to 4.85928e-005
Heightened Def Con from 4.85928e-005 to 4.85928e-005
Heightened Def Con from 4.85928e-005 to 4.85928e-005
Heightened Def Con from 4.85929e-005 to 4.85929e-005
Heightened Def Con from 4.8593e-005 to 4.8593e-005
Heightened Def Con from 4.8593e-005 to 4.8593e-005
Heightened Def Con from 4.8593e-005 to 4.8593e-005
Heightened Def Con from 4.8593e-005 to 4.8593e-005
Heightened Def Con from 4.8593e-005 to 4.8593e-005
Heightened Def Con from 4.8593e-005 to 4.8593e-005
Heightened Def Con from 4.85931e-005 to 4.85931e-005
Heightened Def Con from 4.85931e-005 to 4.85931e-005
Heightened Def Con from 4.85931e-005 to 4.85931e-005
Heightened Def Con from 4.85931e-005 to 4.85931e-005
Heightened Def Con from 4.85931e-005 to 4.85931e-005
Heightened Def Con from 4.85931e-005 to 4.85931e-005
Heightened Def Con from 4.85931e-005 to 4.85932e-005
Heightened Def Con from 4.85932e-005 to 4.85932e-005
Heightened Def Con from 4.85932e-005 to 4.85932e-005
Heightened Def Con from 4.85932e-005 to 4.85932e-005
Heightened Def Con from 4.85932e-005 to 4.85932e-005
Heightened Def Con from 4.85932e-005 to 4.85932e-005
Heightened Def Con from 4.85932e-005 to 4.85932e-005
Heightened Def Con from 4.85932e-005 to 4.85932e-005
Heightened Def Con from 4.85932e-005 to 4.85932e-005
Heightened Def Con from 4.85932e-005 to 4.85932e-005
Heightened Def Con from 4.85932e-005 to 4.85932e-005
Heightened Def Con from 4.85932e-005 to 4.85932e-005
Heightened Def Con from 4.85932e-005 to 4.85932e-005
Heightened Def Con from 4.85932e-005 to 4.85943e-005
Heightened Def Con from 4.85943e-005 to 4.85965e-005
Heightened Def Con from 4.86371e-005 to 4.86371e-005
Heightened Def Con from 4.86372e-005 to 4.86372e-005
Heightened Def Con from 4.86373e-005 to 4.86373e-005
Heightened Def Con from 4.86373e-005 to 4.86374e-005
Heightened Def Con from 4.86374e-005 to 4.86374e-005
Heightened Def Con from 4.86374e-005 to 4.86374e-005
Heightened Def Con from 4.86374e-005 to 4.86374e-005
Heightened Def Con from 4.86374e-005 to 4.86374e-005
Heightened Def Con from 4.86374e-005 to 4.86376e-005
Heightened Def Con from 4.86376e-005 to 4.86376e-005
Heightened Def Con from 4.86376e-005 to 4.86376e-005
Heightened Def Con from 4.86376e-005 to 4.86376e-005
Heightened Def Con from 4.86376e-005 to 4.86376e-005
Heightened Def Con from 4.86376e-005 to 4.86377e-005
Heightened Def Con from 4.86377e-005 to 4.86377e-005
Heightened Def Con from 4.86377e-005 to 4.86377e-005
Heightened Def Con from 4.86377e-005 to 4.86377e-005
Heightened Def Con from 4.86377e-005 to 4.86377e-005
Heightened Def Con from 4.86377e-005 to 4.86377e-005
Heightened Def Con from 4.86377e-005 to 4.86377e-005
Heightened Def Con from 4.86377e-005 to 4.86377e-005
Heightened Def Con from 4.86378e-005 to 4.8638e-005
Heightened Def Con from 4.8638e-005 to 4.8638e-005
Heightened Def Con from 4.8638e-005 to 4.8638e-005
Heightened Def Con from 4.8638e-005 to 4.8638e-005
Heightened Def Con from 4.8638e-005 to 4.8638e-005
Heightened Def Con from 4.8638e-005 to 4.8638e-005
Heightened Def Con from 4.8638e-005 to 4.8638e-005
Heightened Def Con from 4.8638e-005 to 4.8638e-005
Heightened Def Con from 4.8638e-005 to 4.8638e-005
Heightened Def Con from 4.8638e-005 to 4.8638e-005
Heightened Def Con from 4.8638e-005 to 4.8638e-005
Heightened Def Con from 4.8638e-005 to 4.8638e-005
Heightened Def Con from 4.8638e-005 to 4.8638e-005
Heightened Def Con from 4.8638e-005 to 4.8638e-005
Heightened Def Con from 4.8638e-005 to 4.8638e-005
Heightened Def Con from 4.8638e-005 to 4.8638e-005
Heightened Def Con from 4.8638e-005 to 4.864e-005
Heightened Def Con from 4.86443e-005 to 4.86443e-005
Heightened Def Con from 4.86443e-005 to 4.86454e-005
Heightened Def Con from 4.86761e-005 to 4.86772e-005
Heightened Def Con from 4.8681e-005 to 4.8681e-005
Heightened Def Con from 4.86811e-005 to 4.86811e-005
Heightened Def Con from 4.86814e-005 to 4.86815e-005
Heightened Def Con from 4.86816e-005 to 4.86816e-005
Heightened Def Con from 4.86816e-005 to 4.86816e-005
Heightened Def Con from 4.86816e-005 to 4.86817e-005
Heightened Def Con from 4.86818e-005 to 4.86818e-005
Heightened Def Con from 4.86818e-005 to 4.86819e-005
Heightened Def Con from 4.86819e-005 to 4.86819e-005
Heightened Def Con from 4.86819e-005 to 4.86819e-005
Heightened Def Con from 4.86819e-005 to 4.86819e-005
Heightened Def Con from 4.86819e-005 to 4.86819e-005
Heightened Def Con from 4.8682e-005 to 4.8682e-005
Heightened Def Con from 4.8682e-005 to 4.8682e-005
Heightened Def Con from 4.8682e-005 to 4.8682e-005
Heightened Def Con from 4.8682e-005 to 4.8682e-005
Heightened Def Con from 4.8682e-005 to 4.8682e-005
Heightened Def Con from 4.8682e-005 to 4.8682e-005
Heightened Def Con from 4.8682e-005 to 4.8682e-005
Heightened Def Con from 4.8682e-005 to 4.8682e-005
Heightened Def Con from 4.8682e-005 to 4.8682e-005
Heightened Def Con from 4.8682e-005 to 4.8682e-005
Heightened Def Con from 4.8682e-005 to 4.8682e-005
Heightened Def Con from 4.8682e-005 to 4.86821e-005
Heightened Def Con from 4.86821e-005 to 4.86821e-005
Heightened Def Con from 4.86821e-005 to 4.86821e-005
Heightened Def Con from 4.86821e-005 to 4.86821e-005
Heightened Def Con from 4.86821e-005 to 4.86821e-005
Heightened Def Con from 4.86821e-005 to 4.86821e-005
Heightened Def Con from 4.86821e-005 to 4.86821e-005
Heightened Def Con from 4.86821e-005 to 4.86821e-005
Heightened Def Con from 4.86821e-005 to 4.86821e-005
Heightened Def Con from 4.86821e-005 to 4.86821e-005
Heightened Def Con from 4.86821e-005 to 4.86831e-005
Heightened Def Con from 4.86831e-005 to 4.86832e-005
Heightened Def Con from 4.86832e-005 to 4.86832e-005
Heightened Def Con from 4.86832e-005 to 4.86833e-005
Heightened Def Con from 4.86833e-005 to 4.86833e-005
Heightened Def Con from 4.86833e-005 to 4.86833e-005
Heightened Def Con from 4.86833e-005 to 4.86833e-005
Heightened Def Con from 4.86833e-005 to 4.86843e-005
Heightened Def Con from 4.86843e-005 to 4.86843e-005
Heightened Def Con from 4.86843e-005 to 4.86843e-005
Heightened Def Con from 4.86843e-005 to 4.86855e-005
Heightened Def Con from 4.87258e-005 to 4.87268e-005
Heightened Def Con from 4.87268e-005 to 4.87268e-005
Heightened Def Con from 4.87268e-005 to 4.87268e-005
Heightened Def Con from 4.87268e-005 to 4.87268e-005
Heightened Def Con from 4.87268e-005 to 4.87268e-005
Heightened Def Con from 4.87268e-005 to 4.87268e-005
Heightened Def Con from 4.87268e-005 to 4.87268e-005
Heightened Def Con from 4.87268e-005 to 4.87268e-005
Heightened Def Con from 4.87268e-005 to 4.87288e-005
Heightened Def Con from 4.87289e-005 to 4.87289e-005
Heightened Def Con from 4.8729e-005 to 4.8729e-005
Heightened Def Con from 4.877e-005 to 4.87702e-005
Heightened Def Con from 4.87704e-005 to 4.87704e-005
Heightened Def Con from 4.87704e-005 to 4.87704e-005
Heightened Def Con from 4.87705e-005 to 4.87705e-005
Heightened Def Con from 4.87705e-005 to 4.87705e-005
Heightened Def Con from 4.87705e-005 to 4.87705e-005
Heightened Def Con from 4.87705e-005 to 4.87705e-005
Heightened Def Con from 4.87705e-005 to 4.87706e-005
Heightened Def Con from 4.87706e-005 to 4.87706e-005
Heightened Def Con from 4.87707e-005 to 4.87707e-005
Heightened Def Con from 4.87707e-005 to 4.87707e-005
Heightened Def Con from 4.87707e-005 to 4.87707e-005
Heightened Def Con from 4.87708e-005 to 4.87708e-005
Heightened Def Con from 4.87708e-005 to 4.87708e-005
Heightened Def Con from 4.87708e-005 to 4.87708e-005
Heightened Def Con from 4.87708e-005 to 4.87708e-005
Heightened Def Con from 4.87708e-005 to 4.87708e-005
Heightened Def Con from 4.87708e-005 to 4.87709e-005
Heightened Def Con from 4.87709e-005 to 4.87709e-005
Heightened Def Con from 4.87709e-005 to 4.87709e-005
Heightened Def Con from 4.87709e-005 to 4.87709e-005
Heightened Def Con from 4.87709e-005 to 4.87709e-005
Heightened Def Con from 4.87709e-005 to 4.87719e-005
Heightened Def Con from 4.87719e-005 to 4.87719e-005
Heightened Def Con from 4.87719e-005 to 4.87719e-005
Heightened Def Con from 4.87719e-005 to 4.87729e-005
Heightened Def Con from 4.87729e-005 to 4.87729e-005
Heightened Def Con from 4.87729e-005 to 4.87729e-005
Heightened Def Con from 4.8773e-005 to 4.87731e-005
Heightened Def Con from 4.87737e-005 to 4.87739e-005
Heightened Def Con from 4.88147e-005 to 4.88147e-005
Heightened Def Con from 4.88147e-005 to 4.88147e-005
Heightened Def Con from 4.88148e-005 to 4.88148e-005
Heightened Def Con from 4.88149e-005 to 4.8815e-005
Heightened Def Con from 4.8815e-005 to 4.8815e-005
Heightened Def Con from 4.88151e-005 to 4.88151e-005
Heightened Def Con from 4.88151e-005 to 4.88151e-005
Heightened Def Con from 4.88151e-005 to 4.88151e-005
Heightened Def Con from 4.88152e-005 to 4.88152e-005
Heightened Def Con from 4.88152e-005 to 4.88152e-005
Heightened Def Con from 4.88153e-005 to 4.88153e-005
Heightened Def Con from 4.88153e-005 to 4.88153e-005
Heightened Def Con from 4.88153e-005 to 4.88153e-005
Heightened Def Con from 4.88153e-005 to 4.88153e-005
Heightened Def Con from 4.88153e-005 to 4.88153e-005
Heightened Def Con from 4.88153e-005 to 4.88153e-005
Heightened Def Con from 4.88153e-005 to 4.88153e-005
Heightened Def Con from 4.88153e-005 to 4.88153e-005
Heightened Def Con from 4.88153e-005 to 4.88153e-005
Heightened Def Con from 4.88154e-005 to 4.88154e-005
Heightened Def Con from 4.88154e-005 to 4.88156e-005
Heightened Def Con from 4.88156e-005 to 4.88156e-005
Heightened Def Con from 4.88156e-005 to 4.88156e-005
Heightened Def Con from 4.88156e-005 to 4.88156e-005
Heightened Def Con from 4.88156e-005 to 4.88156e-005
Heightened Def Con from 4.88156e-005 to 4.88158e-005
Heightened Def Con from 4.88158e-005 to 4.88158e-005
Heightened Def Con from 4.88158e-005 to 4.88158e-005
Heightened Def Con from 4.88158e-005 to 4.88158e-005
Heightened Def Con from 4.88158e-005 to 4.88158e-005
Heightened Def Con from 4.88158e-005 to 4.88158e-005
Heightened Def Con from 4.88158e-005 to 4.88158e-005
Heightened Def Con from 4.88158e-005 to 4.88158e-005
Heightened Def Con from 4.88158e-005 to 4.88158e-005
Heightened Def Con from 4.88158e-005 to 4.88158e-005
Heightened Def Con from 4.88158e-005 to 4.88158e-005
Heightened Def Con from 4.88158e-005 to 4.88158e-005
Heightened Def Con from 4.88158e-005 to 4.88158e-005
Heightened Def Con from 4.88158e-005 to 4.88168e-005
Heightened Def Con from 4.88168e-005 to 4.88168e-005
Heightened Def Con from 4.88168e-005 to 4.88168e-005
Heightened Def Con from 4.88168e-005 to 4.88168e-005
Heightened Def Con from 4.88168e-005 to 4.88169e-005
Heightened Def Con from 4.88169e-005 to 4.88169e-005
Heightened Def Con from 4.88169e-005 to 4.88169e-005
Heightened Def Con from 4.88169e-005 to 4.88169e-005
Heightened Def Con from 4.88169e-005 to 4.88169e-005
Heightened Def Con from 4.88169e-005 to 4.88179e-005
Heightened Def Con from 4.88227e-005 to 4.88227e-005
Heightened Def Con from 4.88227e-005 to 4.88229e-005
Heightened Def Con from 4.88229e-005 to 4.88232e-005
Heightened Def Con from 4.88232e-005 to 4.88243e-005
Heightened Def Con from 4.88526e-005 to 4.88528e-005
Heightened Def Con from 4.88528e-005 to 4.88529e-005
Heightened Def Con from 4.88529e-005 to 4.8855e-005
Heightened Def Con from 4.88585e-005 to 4.88585e-005
Heightened Def Con from 4.88588e-005 to 4.88588e-005
Heightened Def Con from 4.88589e-005 to 4.88589e-005
Heightened Def Con from 4.88589e-005 to 4.88589e-005
Heightened Def Con from 4.8859e-005 to 4.8859e-005
Heightened Def Con from 4.8859e-005 to 4.8859e-005
Heightened Def Con from 4.88591e-005 to 4.88591e-005
Heightened Def Con from 4.88592e-005 to 4.88592e-005
Heightened Def Con from 4.88592e-005 to 4.88592e-005
Heightened Def Con from 4.88592e-005 to 4.88592e-005
Heightened Def Con from 4.88592e-005 to 4.88593e-005
Heightened Def Con from 4.88593e-005 to 4.88593e-005
Heightened Def Con from 4.88593e-005 to 4.88593e-005
Heightened Def Con from 4.88594e-005 to 4.88594e-005
Heightened Def Con from 4.88594e-005 to 4.88594e-005
Heightened Def Con from 4.88594e-005 to 4.88594e-005
Heightened Def Con from 4.88594e-005 to 4.88594e-005
Heightened Def Con from 4.88594e-005 to 4.88594e-005
Heightened Def Con from 4.88594e-005 to 4.88594e-005
Heightened Def Con from 4.88595e-005 to 4.88595e-005
Heightened Def Con from 4.88595e-005 to 4.88595e-005
Heightened Def Con from 4.88595e-005 to 4.88595e-005
Heightened Def Con from 4.88595e-005 to 4.88595e-005
Heightened Def Con from 4.88596e-005 to 4.88597e-005
Heightened Def Con from 4.88597e-005 to 4.88597e-005
Heightened Def Con from 4.88597e-005 to 4.88597e-005
Heightened Def Con from 4.88597e-005 to 4.88597e-005
Heightened Def Con from 4.88597e-005 to 4.88597e-005
Heightened Def Con from 4.88598e-005 to 4.88598e-005
Heightened Def Con from 4.88598e-005 to 4.88598e-005
Heightened Def Con from 4.88598e-005 to 4.88598e-005
Heightened Def Con from 4.88598e-005 to 4.88599e-005
Heightened Def Con from 4.88599e-005 to 4.88599e-005
Heightened Def Con from 4.88599e-005 to 4.88599e-005
[...]
Heightened Def Con from 4.97905e-005 to 4.97905e-005
Heightened Def Con from 4.97905e-005 to 4.97905e-005
Heightened Def Con from 4.97905e-005 to 4.97905e-005
Heightened Def Con from 4.97905e-005 to 4.97905e-005
Heightened Def Con from 4.97905e-005 to 4.97905e-005
Heightened Def Con from 4.97905e-005 to 4.97905e-005
Heightened Def Con from 4.97905e-005 to 4.97905e-005
Heightened Def Con from 4.97905e-005 to 4.97906e-005
Heightened Def Con from 4.97906e-005 to 4.97906e-005
Heightened Def Con from 4.97906e-005 to 4.97906e-005
Heightened Def Con from 4.97906e-005 to 4.97906e-005
Heightened Def Con from 4.97906e-005 to 4.97906e-005
Heightened Def Con from 4.97906e-005 to 4.97906e-005
Heightened Def Con from 4.97906e-005 to 4.97906e-005
Heightened Def Con from 4.97906e-005 to 4.97906e-005
Heightened Def Con from 4.97906e-005 to 4.97906e-005
Heightened Def Con from 4.97906e-005 to 4.97906e-005
Heightened Def Con from 4.97906e-005 to 4.97906e-005
Heightened Def Con from 4.97906e-005 to 4.97906e-005
Heightened Def Con from 4.97906e-005 to 4.97906e-005
Heightened Def Con from 4.97906e-005 to 4.97906e-005
Heightened Def Con from 4.97906e-005 to 4.97906e-005
Heightened Def Con from 4.97906e-005 to 4.97906e-005
Heightened Def Con from 4.97906e-005 to 4.97906e-005
Heightened Def Con from 4.97906e-005 to 4.97906e-005
Heightened Def Con from 4.97906e-005 to 4.97906e-005
Heightened Def Con from 4.97906e-005 to 4.97907e-005
Heightened Def Con from 4.97907e-005 to 4.97907e-005
Heightened Def Con from 4.97907e-005 to 4.97907e-005
Heightened Def Con from 4.97907e-005 to 4.97907e-005
Heightened Def Con from 4.97908e-005 to 4.97908e-005
Heightened Def Con from 4.97908e-005 to 4.97908e-005
Heightened Def Con from 4.97908e-005 to 4.97908e-005
Heightened Def Con from 4.97908e-005 to 4.97908e-005
Heightened Def Con from 4.97908e-005 to 4.97908e-005
Heightened Def Con from 4.97908e-005 to 4.97908e-005
Heightened Def Con from 4.97908e-005 to 4.97908e-005
Heightened Def Con from 4.97908e-005 to 4.97908e-005
Heightened Def Con from 4.97908e-005 to 4.97908e-005
Heightened Def Con from 4.97908e-005 to 4.97908e-005
Heightened Def Con from 4.97908e-005 to 4.97908e-005
Heightened Def Con from 4.97908e-005 to 4.97908e-005
Heightened Def Con from 4.97908e-005 to 4.97908e-005
Heightened Def Con from 4.97908e-005 +to 4.97908e-005
Heightened Def Con from 4.97908e-005 to 4.97908e-005
Heightened Def Con from 4.97908e-005 to 4.97908e-005
Heightened Def Con from 4.97908e-005 to 4.97908e-005
Heightened Def Con from 4.97908e-005 to 4.97908e-005
Heightened Def Con from 4.97908e-005 to 4.97908e-005
Heightened Def Con from 4.97908e-005 to 4.97908e-005
Heightened Def Con from 4.97908e-005 to 4.97908e-005
Heightened Def Con from 4.97908e-005 to 4.97908e-005
Heightened Def Con from 4.97908e-005 to 4.97908e-005
Heightened Def Con from 4.97908e-005 to 4.97908e-005
Heightened Def Con from 4.97908e-005 to 4.97908e-005
Heightened Def Con from 4.97908e-005 to 4.97908e-005
Heightened Def Con from 4.97908e-005 to 4.97908e-005
Heightened Def Con from 4.97908e-005 to 4.97908e-005
Heightened Def Con from 4.97908e-005 to 4.97908e-005
Heightened Def Con from 4.97908e-005 to 4.97908e-005
Heightened Def Con from 4.97908e-005 to 4.97908e-005
Heightened Def Con from 4.97908e-005 to 4.97908e-005
Heightened Def Con from 4.97908e-005 to 4.97908e-005
Heightened Def Con from 4.97908e-005 to 4.97908e-005
Heightened Def Con from 4.97908e-005 to 4.97908e-005
Heightened Def Con from 4.97908e-005 to 4.97908e-005
Heightened Def Con from 4.97908e-005 to 4.97908e-005
Heightened Def Con from 4.97908e-005 to 4.97908e-005
Heightened Def Con from 4.97908e-005 to 4.97908e-005
Heightened Def Con from 4.97908e-005 to 4.97908e-005
Heightened Def Con from 4.97908e-005 to 4.97908e-005
Heightened Def Con from 4.97908e-005 to 4.97908e-005
Heightened Def Con from 4.97908e-005 to 4.97908e-005
Heightened Def Con from 4.97908e-005 to 4.97908e-005
Heightened Def Con from 4.97908e-005 to 4.97908e-005
Heightened Def Con from 4.97908e-005 to 4.97908e-005
Heightened Def Con from 4.97908e-005 to 4.97908e-005
Heightened Def Con from 4.97908e-005 to 4.97908e-005
Heightened Def Con from 4.97908e-005 to 4.97908e-005
Heightened Def Con from 4.97908e-005 to 4.97908e-005
Heightened Def Con from 4.97908e-005 to 4.97908e-005
Heightened Def Con from 4.97908e-005 to 4.97908e-005
Heightened Def Con from 4.97908e-005 to 4.97908e-005
Heightened Def Con from 4.97908e-005 to 4.97908e-005
Heightened Def Con from 4.97908e-005 to 4.97908e-005
Heightened Def Con from 4.97908e-005 to 4.97908e-005
Heightened Def Con from 4.97908e-005 to 4.97908e-005
Heightened Def Con from 4.97908e-005 to 4.97908e-005
Heightened Def Con from 4.97908e-005 to 4.97908e-005
Heightened Def Con from 4.97908e-005 to 4.97908e-005
Heightened Def Con from 4.97908e-005 to 4.97908e-005
Heightened Def Con from 4.97908e-005 to 4.97908e-005
Heightened Def Con from 4.97908e-005 to 4.97908e-005
Heightened Def Con from 4.97908e-005 to 4.97908e-005
Heightened Def Con from 4.97908e-005 to 4.97908e-005
Heightened Def Con from 4.97908e-005 to 4.97908e-005
Heightened Def Con from 4.97908e-005 to 4.97908e-005
Heightened Def Con from 4.97908e-005 to 4.97908e-005
Heightened Def Con from 4.97908e-005 to 4.97908e-005
Heightened Def Con from 4.97908e-005 to 4.97908e-005
Heightened Def Con from 4.97908e-005 to 4.97908e-005
Heightened Def Con from 4.97908e-005 to 4.97918e-005
Heightened Def Con from 4.97918e-005 to 4.97918e-005
Heightened Def Con from 4.97918e-005 to 4.97918e-005
Heightened Def Con from 4.97918e-005 to 4.97918e-005
Heightened Def Con from 4.97918e-005 to 4.97928e-005
Heightened Def Con from 4.97928e-005 to 4.97928e-005
Heightened Def Con from 4.97928e-005 to 4.97928e-005
Heightened Def Con from 4.97928e-005 to 4.97928e-005
Heightened Def Con from 4.97928e-005 to 4.97939e-005
Heightened Def Con from 4.9794e-005 to 4.9794e-005
Heightened Def Con from 4.9794e-005 to 4.9794e-005
Heightened Def Con from 4.9794e-005 to 4.9794e-005
Heightened Def Con from 4.9794e-005 to 4.97941e-005
Heightened Def Con from 4.97941e-005 to 4.97941e-005
Heightened Def Con from 4.97941e-005 to 4.97942e-005
Heightened Def Con from 4.97943e-005 to 4.97945e-005
Heightened Def Con from 4.97945e-005 to 4.97948e-005
Heightened Def Con from 4.97949e-005 to 4.97949e-005
Heightened Def Con from 4.9795e-005 to 4.9795e-005
Heightened Def Con from 4.9795e-005 to 4.97952e-005
Heightened Def Con from 4.97959e-005 to 4.97959e-005
Heightened Def Con from 4.9796e-005 to 4.97962e-005
Heightened Def Con from 4.97962e-005 to 4.97962e-005
Heightened Def Con from 4.97969e-005 to 4.97989e-005
Heightened Def Con from 4.98035e-005 to 4.98035e-005
Heightened Def Con from 4.98035e-005 to 4.98035e-005
Heightened Def Con from 4.98035e-005 to 4.98035e-005
Heightened Def Con from 4.98035e-005 to 4.98047e-005
Heightened Def Con from 4.98274e-005 to 4.98274e-005
Heightened Def Con from 4.98284e-005 to 4.98284e-005
Heightened Def Con from 4.98288e-005 to 4.98288e-005
Heightened Def Con from 4.98294e-005 to 4.98304e-005
Heightened Def Con from 4.98307e-005 to 4.98308e-005
Heightened Def Con from 4.98309e-005 to 4.98309e-005
Heightened Def Con from 4.98309e-005 to 4.9831e-005
Heightened Def Con from 4.98311e-005 to 4.98311e-005
Heightened Def Con from 4.98311e-005 to 4.98311e-005
Heightened Def Con from 4.98311e-005 to 4.98312e-005
Heightened Def Con from 4.98313e-005 to 4.98313e-005
Heightened Def Con from 4.98314e-005 to 4.98334e-005
Heightened Def Con from 4.98334e-005 to 4.98334e-005
Heightened Def Con from 4.98334e-005 to 4.98334e-005
Heightened Def Con from 4.98334e-005 to 4.98344e-005
Heightened Def Con from 4.98344e-005 to 4.98344e-005
Heightened Def Con from 4.98344e-005 to 4.98344e-005
Heightened Def Con from 4.98344e-005 to 4.98344e-005
Heightened Def Con from 4.98344e-005 to 4.98354e-005
Heightened Def Con from 4.98354e-005 to 4.98354e-005
Heightened Def Con from 4.98354e-005 to 4.98354e-005
Heightened Def Con from 4.98354e-005 to 4.98354e-005
Heightened Def Con from 4.98354e-005 to 4.98354e-005
Heightened Def Con from 4.98354e-005 to 4.98354e-005
Heightened Def Con from 4.98354e-005 to 4.98354e-005
Heightened Def Con from 4.98354e-005 to 4.98354e-005
Heightened Def Con from 4.98354e-005 to 4.98354e-005
Heightened Def Con from 4.98354e-005 to 4.98354e-005
Heightened Def Con from 4.98354e-005 to 4.98354e-005
Heightened Def Con from 4.98354e-005 to 4.98354e-005
Heightened Def Con from 4.98354e-005 to 4.98354e-005
Heightened Def Con from 4.98354e-005 to 4.98354e-005
Heightened Def Con from 4.98354e-005 to 4.98354e-005
Heightened Def Con from 4.98354e-005 to 4.98354e-005
Heightened Def Con from 4.98354e-005 to 4.98354e-005
Heightened Def Con from 4.98354e-005 to 4.98354e-005
Heightened Def Con from 4.98354e-005 to 4.98354e-005
Heightened Def Con from 4.98354e-005 to 4.98354e-005
Heightened Def Con from 4.98354e-005 to 4.98354e-005
Heightened Def Con from 4.98354e-005 to 4.98354e-005
Heightened Def Con from 4.98354e-005 to 4.98354e-005
Heightened Def Con from 4.98354e-005 +to 4.98354e-005
Heightened Def Con from 4.98354e-005 to 4.98354e-005
Heightened Def Con from 4.98354e-005 to 4.98354e-005
Heightened Def Con from 4.98354e-005 to 4.98354e-005
Heightened Def Con from 4.98354e-005 to 4.98354e-005
Heightened Def Con from 4.98354e-005 to 4.98354e-005
Heightened Def Con from 4.98354e-005 to 4.98354e-005
Heightened Def Con from 4.98354e-005 to 4.98354e-005
Heightened Def Con from 4.98354e-005 to 4.98354e-005
Heightened Def Con from 4.98354e-005 to 4.98354e-005
Heightened Def Con from 4.98354e-005 to 4.98354e-005
Heightened Def Con from 4.98354e-005 to 4.98364e-005
Heightened Def Con from 4.98364e-005 to 4.98364e-005
Heightened Def Con from 4.98364e-005 to 4.98364e-005
Heightened Def Con from 4.98364e-005 to 4.98364e-005
Heightened Def Con from 4.98364e-005 to 4.98364e-005
Heightened Def Con from 4.98364e-005 to 4.98364e-005
Heightened Def Con from 4.98364e-005 to 4.98364e-005
Heightened Def Con from 4.98364e-005 to 4.98364e-005
Heightened Def Con from 4.98364e-005 to 4.98364e-005
Heightened Def Con from 4.98364e-005 to 4.98374e-005
Heightened Def Con from 4.98374e-005 to 4.98374e-005
Heightened Def Con from 4.98374e-005 to 4.98384e-005
Heightened Def Con from 4.98385e-005 to 4.98385e-005
Heightened Def Con from 4.98385e-005 to 4.98395e-005
Heightened Def Con from 4.98395e-005 to 4.98405e-005
Heightened Def Con from 4.98405e-005 to 4.98405e-005
Heightened Def Con from 4.98405e-005 to 4.98405e-005
Heightened Def Con from 4.98407e-005 to 4.98407e-005
Heightened Def Con from 4.98411e-005 to 4.98413e-005
Heightened Def Con from 4.98473e-005 to 4.98473e-005
Heightened Def Con from 4.98473e-005 to 4.98483e-005
Heightened Def Con from 4.98735e-005 to 4.98737e-005
Heightened Def Con from 4.98738e-005 to 4.98748e-005
Heightened Def Con from 4.98751e-005 to 4.98751e-005
Heightened Def Con from 4.98752e-005 to 4.98753e-005
Heightened Def Con from 4.98753e-005 to 4.98753e-005
Heightened Def Con from 4.98753e-005 to 4.98753e-005
Heightened Def Con from 4.98754e-005 to 4.98754e-005
Heightened Def Con from 4.98754e-005 to 4.98755e-005
Heightened Def Con from 4.98755e-005 to 4.98755e-005
Heightened Def Con from 4.98756e-005 to 4.98757e-005
Heightened Def Con from 4.98757e-005 to 4.98767e-005
Heightened Def Con from 4.98767e-005 to 4.98768e-005
Heightened Def Con from 4.98768e-005 to 4.98768e-005
Heightened Def Con from 4.98768e-005 to 4.98768e-005
Heightened Def Con from 4.98768e-005 to 4.98768e-005
Heightened Def Con from 4.98768e-005 to 4.98768e-005
Heightened Def Con from 4.98769e-005 to 4.98769e-005
Heightened Def Con from 4.98769e-005 to 4.9877e-005
Heightened Def Con from 4.9877e-005 to 4.9877e-005
Heightened Def Con from 4.9877e-005 to 4.9878e-005
Heightened Def Con from 4.98781e-005 to 4.98781e-005
Heightened Def Con from 4.98781e-005 to 4.98781e-005
Heightened Def Con from 4.98781e-005 to 4.98781e-005
Heightened Def Con from 4.98781e-005 to 4.98781e-005
Heightened Def Con from 4.98781e-005 to 4.98781e-005
Heightened Def Con from 4.98781e-005 to 4.98782e-005
Heightened Def Con from 4.98782e-005 to 4.98782e-005
Heightened Def Con from 4.98782e-005 to 4.98782e-005
Heightened Def Con from 4.98782e-005 to 4.98782e-005
Heightened Def Con from 4.98782e-005 to 4.98782e-005
Heightened Def Con from 4.98782e-005 to 4.98782e-005
Heightened Def Con from 4.98782e-005 to 4.98782e-005
Heightened Def Con from 4.98782e-005 to 4.98782e-005
Heightened Def Con from 4.98782e-005 to 4.98782e-005
Heightened Def Con from 4.98782e-005 to 4.98782e-005
Heightened Def Con from 4.98782e-005 to 4.98782e-005
Heightened Def Con from 4.98782e-005 to 4.98782e-005
Heightened Def Con from 4.98782e-005 to 4.98782e-005
Heightened Def Con from 4.98782e-005 to 4.98782e-005
Heightened Def Con from 4.98782e-005 to 4.98782e-005
Heightened Def Con from 4.98782e-005 to 4.98782e-005
Heightened Def Con from 4.98782e-005 to 4.98782e-005
Heightened Def Con from 4.98782e-005 to 4.98782e-005
Heightened Def Con from 4.98782e-005 to 4.98782e-005
Heightened Def Con from 4.98782e-005 to 4.98782e-005
Heightened Def Con from 4.98782e-005 to 4.98782e-005
Heightened Def Con from 4.98782e-005 to 4.98783e-005
Heightened Def Con from 4.98783e-005 to 4.98783e-005
Heightened Def Con from 4.98784e-005 to 4.98784e-005
Heightened Def Con from 4.98784e-005 to 4.98784e-005
Heightened Def Con from 4.98784e-005 to 4.98784e-005
Heightened Def Con from 4.98784e-005 +to 4.98784e-005
Heightened Def Con from 4.98784e-005 to 4.98784e-005
Heightened Def Con from 4.98784e-005 to 4.98784e-005
Heightened Def Con from 4.98784e-005 to 4.98784e-005
Heightened Def Con from 4.98784e-005 to 4.98784e-005
Heightened Def Con from 4.98784e-005 to 4.98784e-005
Heightened Def Con from 4.98784e-005 to 4.98784e-005
Heightened Def Con from 4.98784e-005 to 4.98784e-005
Heightened Def Con from 4.98784e-005 to 4.98784e-005
Heightened Def Con from 4.98784e-005 to 4.98784e-005
Heightened Def Con from 4.98784e-005 to 4.98784e-005
Heightened Def Con from 4.98784e-005 to 4.98784e-005
Heightened Def Con from 4.98784e-005 to 4.98784e-005
Heightened Def Con from 4.98784e-005 to 4.98784e-005
Heightened Def Con from 4.98784e-005 to 4.98784e-005
Heightened Def Con from 4.98784e-005 to 4.98784e-005
Heightened Def Con from 4.98784e-005 to 4.98784e-005
Heightened Def Con from 4.98784e-005 to 4.98784e-005
Heightened Def Con from 4.98784e-005 to 4.98784e-005
Heightened Def Con from 4.98784e-005 to 4.98785e-005
Heightened Def Con from 4.98785e-005 to 4.98785e-005
Heightened Def Con from 4.98785e-005 to 4.98785e-005
Heightened Def Con from 4.98785e-005 to 4.98785e-005
Heightened Def Con from 4.98785e-005 to 4.98785e-005
Heightened Def Con from 4.98785e-005 to 4.98785e-005
Heightened Def Con from 4.98785e-005 to 4.98785e-005
Heightened Def Con from 4.98785e-005 to 4.98785e-005
Heightened Def Con from 4.98785e-005 to 4.98785e-005
Heightened Def Con from 4.98785e-005 to 4.98785e-005
Heightened Def Con from 4.98785e-005 to 4.98785e-005
Heightened Def Con from 4.98785e-005 to 4.98785e-005
Heightened Def Con from 4.98785e-005 to 4.98785e-005
Heightened Def Con from 4.98785e-005 to 4.98785e-005
Heightened Def Con from 4.98785e-005 to 4.98785e-005
Heightened Def Con from 4.98785e-005 to 4.98785e-005
Heightened Def Con from 4.98785e-005 to 4.98785e-005
Heightened Def Con from 4.98785e-005 to 4.98785e-005
Heightened Def Con from 4.98785e-005 to 4.98786e-005
Heightened Def Con from 4.98786e-005 to 4.98786e-005
Heightened Def Con from 4.98786e-005 to 4.98786e-005
Heightened Def Con from 4.98786e-005 to 4.98787e-005
Heightened Def Con from 4.98787e-005 to 4.98787e-005
Heightened Def Con from 4.98787e-005 to 4.98787e-005
Heightened Def Con from 4.98787e-005 to 4.98787e-005
Heightened Def Con from 4.98787e-005 to 4.98787e-005
Heightened Def Con from 4.98787e-005 to 4.98787e-005
Heightened Def Con from 4.98787e-005 to 4.98787e-005
Heightened Def Con from 4.98787e-005 to 4.98787e-005
Heightened Def Con from 4.98787e-005 to 4.98788e-005
Heightened Def Con from 4.98788e-005 to 4.98788e-005
Heightened Def Con from 4.98788e-005 to 4.98788e-005
Heightened Def Con from 4.98788e-005 to 4.98788e-005
Heightened Def Con from 4.98788e-005 to 4.98788e-005
Heightened Def Con from 4.98788e-005 to 4.98788e-005
Heightened Def Con from 4.98788e-005 to 4.98788e-005
Heightened Def Con from 4.98788e-005 to 4.98788e-005
Heightened Def Con from 4.98788e-005 to 4.98788e-005
Heightened Def Con from 4.98788e-005 to 4.98788e-005
Heightened Def Con from 4.98788e-005 to 4.98788e-005
Heightened Def Con from 4.98788e-005 to 4.98788e-005
Heightened Def Con from 4.98788e-005 to 4.98788e-005
Heightened Def Con from 4.98788e-005 to 4.98788e-005
Heightened Def Con from 4.98788e-005 to 4.98788e-005
Heightened Def Con from 4.98788e-005 to 4.98788e-005
Heightened Def Con from 4.98788e-005 to 4.98788e-005
Heightened Def Con from 4.98788e-005 to 4.98788e-005
Heightened Def Con from 4.98788e-005 to 4.98788e-005
Heightened Def Con from 4.98788e-005 to 4.98788e-005
Heightened Def Con from 4.98788e-005 to 4.98788e-005
Heightened Def Con from 4.98788e-005 to 4.98788e-005
Heightened Def Con from 4.98788e-005 to 4.98788e-005
Heightened Def Con from 4.98788e-005 to 4.98788e-005
Heightened Def Con from 4.98788e-005 to 4.98788e-005
Heightened Def Con from 4.98788e-005 to 4.98788e-005
Heightened Def Con from 4.98788e-005 to 4.98788e-005
Heightened Def Con from 4.98788e-005 to 4.98789e-005
Heightened Def Con from 4.98789e-005 to 4.98789e-005
Heightened Def Con from 4.98789e-005 to 4.98789e-005
Heightened Def Con from 4.98789e-005 to 4.98789e-005
Heightened Def Con from 4.98789e-005 to 4.98789e-005
Heightened Def Con from 4.98789e-005 to 4.98789e-005
Heightened Def Con from 4.98789e-005 to 4.98789e-005
Heightened Def Con from 4.98789e-005 to 4.98789e-005
Heightened Def Con from 4.98789e-005 to 4.98789e-005
Heightened Def Con from 4.98789e-005 to 4.98789e-005
Heightened Def Con from 4.98789e-005 to 4.98789e-005
Heightened Def Con from 4.98789e-005 to 4.98789e-005
Heightened Def Con from 4.98789e-005 to 4.98789e-005
Heightened Def Con from 4.98789e-005 to 4.98789e-005
Heightened Def Con from 4.98789e-005 to 4.98789e-005
Heightened Def Con from 4.98789e-005 to 4.98789e-005
Heightened Def Con from 4.98789e-005 to 4.98789e-005
Heightened Def Con from 4.98789e-005 to 4.98789e-005
Heightened Def Con from 4.98789e-005 to 4.98789e-005
Heightened Def Con from 4.98789e-005 to 4.98789e-005
Heightened Def Con from 4.98789e-005 to 4.98789e-005
Heightened Def Con from 4.98789e-005 to 4.98789e-005
Heightened Def Con from 4.98789e-005 to 4.98789e-005
Heightened Def Con from 4.98789e-005 to 4.98789e-005
Heightened Def Con from 4.98789e-005 to 4.98789e-005
Heightened Def Con from 4.98789e-005 to 4.98789e-005
Heightened Def Con from 4.98789e-005 to 4.98789e-005
Heightened Def Con from 4.98789e-005 to 4.98789e-005
Heightened Def Con from 4.98789e-005 to 4.98789e-005
Heightened Def Con from 4.98789e-005 to 4.98789e-005
Heightened Def Con from 4.98789e-005 to 4.98789e-005
Heightened Def Con from 4.98789e-005 to 4.98789e-005
Heightened Def Con from 4.98789e-005 to 4.98789e-005
Heightened Def Con from 4.98789e-005 to 4.98789e-005
Heightened Def Con from 4.98789e-005 to 4.98789e-005
Heightened Def Con from 4.98789e-005 to 4.98789e-005
Heightened Def Con from 4.98789e-005 to 4.98789e-005
Heightened Def Con from 4.98789e-005 +to 4.98789e-005
Heightened Def Con from 4.98789e-005 to 4.98789e-005
Heightened Def Con from 4.98789e-005 to 4.98789e-005
Heightened Def Con from 4.98789e-005 to 4.98789e-005
Heightened Def Con from 4.98789e-005 to 4.98789e-005

Date: Tue May 30 13:40:38 2023
Total elapsed time: 12.919 seconds.

tnom = 27
temp = 27
method = modified trap
totiter = 2642453
traniter = 2635903
tranpoints = 388758
accept = 259114
rejected = 133934
matrix size = 35
fillins = 9
solver = Normal
Matrix Compiler1: 2.35 KB object code size  1.2/0.6/[0.5]
Matrix Compiler2: 2.80 KB object code size  0.6/0.7/[0.5]

