Circuit: * C:\users\leonardo\Desktop\FSAE\inverter-simulation\main-attempt\inverter-spice.asc

Limiting rise time of source v2 to 6.25e-006
Limiting fall time of source v2 to 6.25e-006
Direct Newton iteration failed to find .op point.  (Use ".option noopiter" to skip.)
Starting Gmin stepping
Gmin = 10
Gmin = 1.07374
Gmin = 0.115292
Gmin = 0.0123794
Gmin = 0.00132923
Gmin = 0.000142725
Gmin = 1.5325e-005
Gmin = 1.6455e-006
Gmin = 1.76685e-007
Gmin = 1.89714e-008
Gmin = 2.03704e-009
vernier = 0.5
vernier = 0.666667
Gmin = 6.64404e-010
vernier = 0.333333
vernier = 0.444444
Gmin = 2.94423e-010
vernier = 0.222222
vernier = 0.111111
vernier = 0.0555555
Gmin = 2.50756e-010
vernier = 0.074074
vernier = 0.037037
vernier = 0.0185185
Gmin = 2.35114e-010
vernier = 0.00925925
vernier = 0.0123457
Gmin = 2.30627e-010
vernier = 0.0164609
vernier = 0.0219478
Gmin = 2.21197e-010
vernier = 0.0292638
Gmin = 2.07147e-010
vernier = 0.0146319
vernier = 0.00731595
Gmin = 2.04513e-010
vernier = 0.00975459
vernier = 0.0048773
vernier = 0.00243865
vernier = 0.00121932
vernier = 0.000609662
Gmin = 2.03767e-010
vernier = 0.000457246
Gmin = 0
Gmin stepping failed

Starting source stepping with srcstepmethod=0
Source Step = 3.0303%
Source Step = 33.3333%
Source Step = 63.6364%
Source Step = 93.9394%
Source stepping succeeded in finding the operating point.

Changing Tseed to 5e-009
Changing Tseed to 5e-011
Changing Tseed to 5e-008
Heightened Def Con from 5.01008e-008 to 5.01164e-008
Heightened Def Con from 5.01172e-008 to 5.01348e-008
Heightened Def Con from 5.01357e-008 to 5.01533e-008
Heightened Def Con from 5.01574e-008 to 5.01594e-008
Heightened Def Con from 5.01601e-008 to 5.01604e-008
Heightened Def Con from 5.01612e-008 to 5.11612e-008
Heightened Def Con from 5.1162e-008 to 5.11622e-008
Heightened Def Con from 5.11627e-008 to 5.11632e-008
Heightened Def Con from 5.11647e-008 to 5.21647e-008
Heightened Def Con from 5.21659e-008 to 5.21662e-008
Heightened Def Con from 5.21669e-008 to 5.21689e-008
Heightened Def Con from 5.21696e-008 to 5.21696e-008
Heightened Def Con from 5.21699e-008 to 5.21704e-008
Heightened Def Con from 5.21721e-008 to 5.21741e-008
Heightened Def Con from 5.21749e-008 to 5.3175e-008
Heightened Def Con from 5.31758e-008 to 5.31777e-008
Heightened Def Con from 5.31792e-008 to 5.32104e-008
Heightened Def Con from 5.32418e-008 to 5.33668e-008
Heightened Def Con from 5.33675e-008 to 5.33678e-008
Heightened Def Con from 5.33685e-008 to 5.3369e-008
Heightened Def Con from 5.34935e-008 to 5.34955e-008
Heightened Def Con from 5.3496e-008 to 5.34964e-008
Heightened Def Con from 5.34999e-008 to 5.44999e-008
Heightened Def Con from 5.44999e-008 to 5.44999e-008
Heightened Def Con from 5.45006e-008 to 5.56256e-008
Heightened Def Con from 5.56568e-008 to 5.56588e-008
Heightened Def Con from 5.56595e-008 to 5.56634e-008
Heightened Def Con from 5.56683e-008 to 5.56687e-008
Heightened Def Con from 5.56694e-008 to 5.56699e-008
Heightened Def Con from 5.56713e-008 to 5.56732e-008
Heightened Def Con from 5.56737e-008 to 5.56742e-008
Heightened Def Con from 5.56777e-008 to 5.58027e-008
Heightened Def Con from 5.58037e-008 to 5.58076e-008
Heightened Def Con from 5.58119e-008 to 5.58138e-008
Heightened Def Con from 5.58139e-008 to 5.58296e-008
Heightened Def Con from 5.58299e-008 to 5.68299e-008
Heightened Def Con from 5.68299e-008 to 5.68455e-008
Heightened Def Con from 5.68461e-008 to 5.68464e-008
Heightened Def Con from 5.68473e-008 to 5.6863e-008
Heightened Def Con from 5.68634e-008 to 5.71134e-008
Heightened Def Con from 5.7359e-008 to 5.7361e-008
Heightened Def Con from 5.73616e-008 to 5.73635e-008
Heightened Def Con from 5.73638e-008 to 5.73677e-008
Heightened Def Con from 5.73722e-008 to 5.73727e-008
Heightened Def Con from 5.73739e-008 to 5.74991e-008
Heightened Def Con from 5.75003e-008 to 5.75006e-008
Heightened Def Con from 5.7501e-008 to 5.75012e-008
Heightened Def Con from 5.75019e-008 to 5.75039e-008
Heightened Def Con from 5.75041e-008 to 5.76291e-008
Heightened Def Con from 5.76294e-008 to 5.76314e-008
Heightened Def Con from 5.76322e-008 to 5.76327e-008
Heightened Def Con from 5.76337e-008 to 5.76357e-008
Heightened Def Con from 5.76371e-008 to 5.76391e-008
Heightened Def Con from 5.76406e-008 to 5.77656e-008
Heightened Def Con from 5.77662e-008 to 5.77974e-008
Heightened Def Con from 5.77986e-008 to 5.88143e-008
Heightened Def Con from 5.88151e-008 to 5.90651e-008
Heightened Def Con from 5.93153e-008 to 5.93158e-008
Heightened Def Con from 5.93174e-008 to 5.93178e-008
Heightened Def Con from 5.93187e-008 to 5.93188e-008
Heightened Def Con from 5.93191e-008 to 5.94441e-008
Heightened Def Con from 5.94451e-008 to 5.94454e-008
Heightened Def Con from 5.94475e-008 to 5.95881e-008
Heightened Def Con from 5.96198e-008 to 5.96237e-008
Heightened Def Con from 5.96286e-008 to 5.96291e-008
Heightened Def Con from 5.96306e-008 to 5.96326e-008
Heightened Def Con from 5.96331e-008 to 5.96353e-008
Heightened Def Con from 5.96365e-008 to 5.9637e-008
Heightened Def Con from 5.96381e-008 to 5.9642e-008
Heightened Def Con from 5.96537e-008 to 5.96542e-008
Heightened Def Con from 5.96554e-008 to 5.96574e-008
Heightened Def Con from 5.96578e-008 to 5.96578e-008
Heightened Def Con from 5.96582e-008 to 5.97988e-008
Heightened Def Con from 5.97997e-008 to 5.97998e-008
Heightened Def Con from 5.97998e-008 to 5.99248e-008
Heightened Def Con from 5.99253e-008 to 6.01753e-008
Heightened Def Con from 6.01767e-008 to 6.03017e-008
Heightened Def Con from 6.03031e-008 to 6.03051e-008
Heightened Def Con from 6.03055e-008 to 6.03094e-008
Heightened Def Con from 6.03104e-008 to 6.14354e-008
Heightened Def Con from 6.14389e-008 to 6.14389e-008
Heightened Def Con from 6.14389e-008 to 6.35639e-008
Heightened Def Con from 6.43318e-008 to 6.4332e-008
Heightened Def Con from 6.43332e-008 to 6.43371e-008
Heightened Def Con from 6.43419e-008 to 6.44688e-008
Heightened Def Con from 6.44719e-008 to 6.44722e-008
Heightened Def Con from 6.44729e-008 to 6.44734e-008
Heightened Def Con from 6.44748e-008 to 6.44753e-008
Heightened Def Con from 6.44763e-008 to 6.44768e-008
Heightened Def Con from 6.44808e-008 to 6.46214e-008
Heightened Def Con from 6.46488e-008 to 6.46488e-008
Heightened Def Con from 6.46493e-008 to 6.46513e-008
Heightened Def Con from 6.46519e-008 to 6.56519e-008
Heightened Def Con from 6.56525e-008 to 6.5653e-008
Heightened Def Con from 6.5654e-008 to 6.5779e-008
Heightened Def Con from 6.57802e-008 to 6.59052e-008
Heightened Def Con from 6.59062e-008 to 6.70312e-008
Heightened Def Con from 6.72893e-008 to 6.72933e-008
Heightened Def Con from 6.72951e-008 to 6.72971e-008
Heightened Def Con from 6.72976e-008 to 6.72979e-008
Heightened Def Con from 6.72987e-008 to 6.83007e-008
Heightened Def Con from 6.83047e-008 to 6.8305e-008
Heightened Def Con from 6.83061e-008 to 6.83218e-008
Heightened Def Con from 6.83253e-008 to 6.83258e-008
Heightened Def Con from 6.8331e-008 to 6.93467e-008
Heightened Def Con from 6.95659e-008 to 7.06909e-008
Heightened Def Con from 7.06978e-008 to 7.16978e-008
Heightened Def Con from 7.16989e-008 to 7.18239e-008
Heightened Def Con from 7.18252e-008 to 7.28408e-008
Heightened Def Con from 7.28722e-008 to 7.29035e-008
Heightened Def Con from 7.29172e-008 to 7.39192e-008
Heightened Def Con from 7.392e-008 to 7.5045e-008
Heightened Def Con from 7.50491e-008 to 7.61741e-008
Heightened Def Con from 7.64318e-008 to 7.84318e-008
Heightened Def Con from 7.97279e-008 to 8.17279e-008
Heightened Def Con from 8.59414e-008 to 8.79414e-008
Heightened Def Con from 8.93322e-008 to 8.93322e-008
Heightened Def Con from 8.93322e-008 to 9.03478e-008
Heightened Def Con from 9.03492e-008 to 9.05992e-008
Heightened Def Con from 9.13644e-008 to 9.23801e-008
Heightened Def Con from 9.74119e-008 to 9.74139e-008
Heightened Def Con from 9.74146e-008 to 9.74151e-008
Heightened Def Con from 9.74194e-008 to 9.74214e-008
Heightened Def Con from 9.74218e-008 to 9.76718e-008
Heightened Def Con from 9.87622e-008 to 9.88874e-008
Heightened Def Con from 9.88889e-008 to 9.90141e-008
Heightened Def Con from 9.90163e-008 to 1.00032e-007
Heightened Def Con from 1.00251e-007 to 1.00282e-007
Heightened Def Con from 1.00287e-007 to 1.00537e-007
Heightened Def Con from 1.00592e-007 to 1.00719e-007
Heightened Def Con from 1.00748e-007 to 1.00748e-007
Heightened Def Con from 1.0075e-007 to 1.00875e-007
Heightened Def Con from 1.00878e-007 to 1.01005e-007
Heightened Def Con from 1.01006e-007 to 1.01007e-007
Heightened Def Con from 1.01011e-007 to 1.01136e-007
Heightened Def Con from 1.01136e-007 to 1.01137e-007
Heightened Def Con from 1.01154e-007 to 1.01154e-007
Heightened Def Con from 1.01163e-007 to 1.01288e-007
Heightened Def Con from 1.01289e-007 to 1.01539e-007
Heightened Def Con from 1.0154e-007 to 1.0154e-007
Heightened Def Con from 1.01541e-007 to 1.01681e-007
Heightened Def Con from 1.01905e-007 to 1.01905e-007
Heightened Def Con from 1.01906e-007 to 1.01938e-007
Heightened Def Con from 1.01942e-007 to 1.02067e-007
Heightened Def Con from 1.02067e-007 to 1.02083e-007
Heightened Def Con from 1.02084e-007 to 1.02225e-007
Heightened Def Con from 1.02257e-007 to 1.03257e-007
Heightened Def Con from 1.03257e-007 to 1.03382e-007
Heightened Def Con from 1.03391e-007 to 1.03391e-007
Heightened Def Con from 1.03391e-007 to 1.03392e-007
Heightened Def Con from 1.03394e-007 to 1.03644e-007
Heightened Def Con from 1.03676e-007 to 1.03816e-007
Heightened Def Con from 1.03818e-007 to 1.03834e-007
Heightened Def Con from 1.03834e-007 to 1.03836e-007
Heightened Def Con from 1.03837e-007 to 1.03837e-007
Heightened Def Con from 1.039e-007 to 1.04025e-007
Heightened Def Con from 1.04027e-007 to 1.04028e-007
Heightened Def Con from 1.04032e-007 to 1.04035e-007
Heightened Def Con from 1.0404e-007 to 1.05055e-007
Heightened Def Con from 1.05059e-007 to 1.05075e-007
Heightened Def Con from 1.05077e-007 to 1.05077e-007
Heightened Def Con from 1.05079e-007 to 1.05081e-007
Heightened Def Con from 1.05082e-007 to 1.05097e-007
Heightened Def Con from 1.05098e-007 to 1.05099e-007
Heightened Def Con from 1.05103e-007 to 1.05103e-007
Heightened Def Con from 1.05103e-007 to 1.05105e-007
Heightened Def Con from 1.05106e-007 to 1.05233e-007
Heightened Def Con from 1.05234e-007 to 1.05265e-007
Heightened Def Con from 1.05269e-007 to 1.05285e-007
Heightened Def Con from 1.05285e-007 to 1.05426e-007
Heightened Def Con from 1.05458e-007 to 1.05458e-007
Heightened Def Con from 1.05459e-007 to 1.05459e-007
Heightened Def Con from 1.05459e-007 to 1.0546e-007
Heightened Def Con from 1.05461e-007 to 1.05463e-007
Heightened Def Con from 1.05464e-007 to 1.05464e-007
Heightened Def Con from 1.05465e-007 to 1.05466e-007
Heightened Def Con from 1.05466e-007 to 1.05468e-007
Heightened Def Con from 1.05468e-007 to 1.05469e-007
Heightened Def Con from 1.0547e-007 to 1.05472e-007
Heightened Def Con from 1.05473e-007 to 1.05614e-007
Heightened Def Con from 1.05645e-007 to 1.0577e-007
Heightened Def Con from 1.05771e-007 to 1.06021e-007
Heightened Def Con from 1.06025e-007 to 1.06025e-007
Heightened Def Con from 1.06027e-007 to 1.06031e-007
Heightened Def Con from 1.06032e-007 to 1.06036e-007
Heightened Def Con from 1.06038e-007 to 1.06038e-007
Heightened Def Con from 1.06039e-007 to 1.06166e-007
Heightened Def Con from 1.06168e-007 to 1.06172e-007
Heightened Def Con from 1.06184e-007 to 1.06184e-007
Heightened Def Con from 1.06184e-007 to 1.06309e-007
Heightened Def Con from 1.0631e-007 to 1.0631e-007
Heightened Def Con from 1.06373e-007 to 1.06498e-007
Heightened Def Con from 1.06498e-007 to 1.06499e-007
Heightened Def Con from 1.06499e-007 to 1.06499e-007
Heightened Def Con from 1.06501e-007 to 1.06503e-007
Heightened Def Con from 1.06503e-007 to 1.06505e-007
Heightened Def Con from 1.06506e-007 to 1.06522e-007
Heightened Def Con from 1.06522e-007 to 1.06523e-007
Heightened Def Con from 1.06524e-007 to 1.06524e-007
Heightened Def Con from 1.06525e-007 to 1.06526e-007
Heightened Def Con from 1.06527e-007 to 1.06543e-007
Heightened Def Con from 1.06544e-007 to 1.06794e-007
Heightened Def Con from 1.06798e-007 to 1.06799e-007
Heightened Def Con from 1.06799e-007 to 1.06803e-007
Heightened Def Con from 1.06807e-007 to 1.06809e-007
Heightened Def Con from 1.06809e-007 to 1.06811e-007
Heightened Def Con from 1.06812e-007 to 1.06814e-007
Heightened Def Con from 1.06814e-007 to 1.06815e-007
Heightened Def Con from 1.06832e-007 to 1.06834e-007
Heightened Def Con from 1.06836e-007 to 1.06838e-007
Heightened Def Con from 1.06838e-007 to 1.0684e-007
Heightened Def Con from 1.06841e-007 to 1.06845e-007
Heightened Def Con from 1.0685e-007 to 1.06854e-007
Heightened Def Con from 1.06858e-007 to 1.06858e-007
Heightened Def Con from 1.06859e-007 to 1.06986e-007
Heightened Def Con from 1.06988e-007 to 1.0799e-007
Heightened Def Con from 1.07994e-007 to 1.07996e-007
Heightened Def Con from 1.07997e-007 to 1.07998e-007
Heightened Def Con from 1.07999e-007 to 1.08001e-007
Heightened Def Con from 1.08001e-007 to 1.08019e-007
Heightened Def Con from 1.08021e-007 to 1.08023e-007
Heightened Def Con from 1.08026e-007 to 1.08026e-007
Heightened Def Con from 1.08027e-007 to 1.08028e-007
Heightened Def Con from 1.08036e-007 to 1.08036e-007
Heightened Def Con from 1.08037e-007 to 1.08038e-007
Heightened Def Con from 1.08041e-007 to 1.08043e-007
Heightened Def Con from 1.08044e-007 to 1.08046e-007
Heightened Def Con from 1.08047e-007 to 1.08047e-007
Heightened Def Con from 1.08047e-007 to 1.08049e-007
Heightened Def Con from 1.0805e-007 to 1.08051e-007
Heightened Def Con from 1.08052e-007 to 1.08068e-007
Heightened Def Con from 1.08068e-007 to 1.08084e-007
Heightened Def Con from 1.08084e-007 to 1.08085e-007
Heightened Def Con from 1.08085e-007 to 1.08087e-007
Heightened Def Con from 1.08089e-007 to 1.08089e-007
Heightened Def Con from 1.08097e-007 to 1.08099e-007
Heightened Def Con from 1.081e-007 to 1.08102e-007
Heightened Def Con from 1.08103e-007 to 1.08105e-007
Heightened Def Con from 1.08106e-007 to 1.08106e-007
Heightened Def Con from 1.08106e-007 to 1.08107e-007
Heightened Def Con from 1.0811e-007 to 1.08111e-007
Heightened Def Con from 1.08115e-007 to 1.08255e-007
Heightened Def Con from 1.08257e-007 to 1.08257e-007
Heightened Def Con from 1.08261e-007 to 1.08263e-007
Heightened Def Con from 1.08265e-007 to 1.08266e-007
Heightened Def Con from 1.08267e-007 to 1.08268e-007
Heightened Def Con from 1.08268e-007 to 1.0827e-007
Heightened Def Con from 1.08271e-007 to 1.08272e-007
Heightened Def Con from 1.08273e-007 to 1.08273e-007
Heightened Def Con from 1.08274e-007 to 1.08401e-007
Heightened Def Con from 1.08402e-007 to 1.08404e-007
Heightened Def Con from 1.08405e-007 to 1.08408e-007
Heightened Def Con from 1.08409e-007 to 1.08409e-007
Heightened Def Con from 1.0841e-007 to 1.09535e-007
Heightened Def Con from 1.09536e-007 to 1.09537e-007
Heightened Def Con from 1.0954e-007 to 1.09542e-007
Heightened Def Con from 1.0955e-007 to 1.0955e-007
Heightened Def Con from 1.0955e-007 to 1.09554e-007
Heightened Def Con from 1.09562e-007 to 1.09577e-007
Heightened Def Con from 1.09578e-007 to 1.09582e-007
Heightened Def Con from 1.10136e-007 to 1.11136e-007
Heightened Def Con from 1.11137e-007 to 1.11152e-007
Heightened Def Con from 1.11154e-007 to 1.12154e-007
Heightened Def Con from 1.12154e-007 to 1.12281e-007
Heightened Def Con from 1.12294e-007 to 1.1231e-007
Heightened Def Con from 1.12312e-007 to 1.12437e-007
Heightened Def Con from 1.12438e-007 to 1.12563e-007
Heightened Def Con from 1.12563e-007 to 1.13688e-007
Heightened Def Con from 1.13691e-007 to 1.13693e-007
Heightened Def Con from 1.13703e-007 to 1.14703e-007
Heightened Def Con from 1.14704e-007 to 1.14708e-007
Heightened Def Con from 1.14719e-007 to 1.16719e-007
Heightened Def Con from 8.16611e-005 to 8.16641e-005
Heightened Def Con from 8.233e-005 to 8.2333e-005
Heightened Def Con from 8.24637e-005 to 8.24667e-005
Heightened Def Con from 8.25083e-005 to 8.25113e-005
Heightened Def Con from 8.27312e-005 to 8.27342e-005
Heightened Def Con from 8.27758e-005 to 8.27788e-005
Heightened Def Con from 8.28642e-005 to 8.28645e-005
Heightened Def Con from 8.28649e-005 to 8.28649e-005
Heightened Def Con from 8.28649e-005 to 8.2866e-005
Heightened Def Con from 8.29094e-005 to 8.29094e-005
Heightened Def Con from 8.29094e-005 to 8.29094e-005
Heightened Def Con from 8.29094e-005 to 8.29094e-005
Heightened Def Con from 8.29094e-005 to 8.29094e-005
Heightened Def Con from 8.29094e-005 to 8.29094e-005
Heightened Def Con from 8.29095e-005 to 8.29106e-005
Heightened Def Con from 8.29532e-005 to 8.29533e-005
Heightened Def Con from 8.29533e-005 to 8.29535e-005
Heightened Def Con from 8.2954e-005 to 8.2957e-005
Heightened Def Con from 8.30878e-005 to 8.30878e-005
Heightened Def Con from 8.30878e-005 to 8.30878e-005
Heightened Def Con from 8.30878e-005 to 8.30878e-005
Heightened Def Con from 8.30878e-005 to 8.30888e-005
Heightened Def Con from 8.30889e-005 to 8.30892e-005
Heightened Def Con from 8.31769e-005 to 8.31799e-005
Heightened Def Con from 8.32214e-005 to 8.32244e-005
Heightened Def Con from 8.33552e-005 to 8.33552e-005
Heightened Def Con from 8.33552e-005 to 8.33582e-005
Heightened Def Con from 8.33997e-005 to 8.33997e-005
Heightened Def Con from 8.33997e-005 to 8.33997e-005
Heightened Def Con from 8.33998e-005 to 8.34028e-005
Heightened Def Con from 8.34443e-005 to 8.34464e-005
Heightened Def Con from 8.34888e-005 to 8.34888e-005
Heightened Def Con from 8.34888e-005 to 8.34888e-005
Heightened Def Con from 8.34888e-005 to 8.34918e-005
Heightened Def Con from 8.35333e-005 to 8.35333e-005
Heightened Def Con from 8.35333e-005 to 8.35333e-005
Heightened Def Con from 8.35334e-005 to 8.35334e-005
Heightened Def Con from 8.35334e-005 to 8.35364e-005
Heightened Def Con from 8.35768e-005 to 8.35778e-005
Heightened Def Con from 8.35779e-005 to 8.35809e-005
Heightened Def Con from 8.36224e-005 to 8.36224e-005
Heightened Def Con from 8.36225e-005 to 8.36255e-005
Heightened Def Con from 8.37117e-005 to 8.37127e-005
Heightened Def Con from 8.38007e-005 to 8.38018e-005
Heightened Def Con from 8.38439e-005 to 8.38439e-005
Heightened Def Con from 8.38439e-005 to 8.38439e-005
Heightened Def Con from 8.38439e-005 to 8.38439e-005
Heightened Def Con from 8.38439e-005 to 8.38443e-005
Heightened Def Con from 8.38451e-005 to 8.38451e-005
Heightened Def Con from 8.38453e-005 to 8.38453e-005
Heightened Def Con from 8.38453e-005 to 8.38453e-005
Heightened Def Con from 8.38453e-005 to 8.38453e-005
Heightened Def Con from 8.38453e-005 to 8.38454e-005
Heightened Def Con from 8.38454e-005 to 8.38464e-005
Heightened Def Con from 8.39343e-005 to 8.39344e-005
Heightened Def Con from 8.39344e-005 to 8.39344e-005
Heightened Def Con from 8.39344e-005 to 8.39344e-005
Heightened Def Con from 8.39345e-005 to 8.39345e-005
Heightened Def Con from 8.39345e-005 to 8.39345e-005
Heightened Def Con from 8.39345e-005 to 8.39375e-005
Heightened Def Con from 8.39789e-005 to 8.39819e-005
Heightened Def Con from 8.40679e-005 to 8.40681e-005
Heightened Def Con from 8.40681e-005 to 8.40681e-005
Heightened Def Con from 8.40681e-005 to 8.40691e-005
Heightened Def Con from 8.41125e-005 to 8.41125e-005
Heightened Def Con from 8.41125e-005 to 8.41146e-005
Heightened Def Con from 8.42014e-005 to 8.42014e-005
Heightened Def Con from 8.42016e-005 to 8.42016e-005
Heightened Def Con from 8.42016e-005 to 8.42016e-005
Heightened Def Con from 8.42017e-005 to 8.42017e-005
Heightened Def Con from 8.42017e-005 to 8.42017e-005
Heightened Def Con from 8.42017e-005 to 8.42017e-005
Heightened Def Con from 8.42017e-005 to 8.42017e-005
Heightened Def Con from 8.42017e-005 to 8.42027e-005
Heightened Def Con from 8.42461e-005 to 8.42471e-005
Heightened Def Con from 8.42905e-005 to 8.42905e-005
Heightened Def Con from 8.42905e-005 to 8.42905e-005
Heightened Def Con from 8.42907e-005 to 8.42907e-005
Heightened Def Con from 8.42907e-005 to 8.42907e-005
Heightened Def Con from 8.42907e-005 to 8.42907e-005
Heightened Def Con from 8.42907e-005 to 8.42907e-005
Heightened Def Con from 8.42907e-005 to 8.42937e-005
Heightened Def Con from 8.43351e-005 to 8.43381e-005
Heightened Def Con from 8.44243e-005 to 8.44273e-005
Heightened Def Con from 8.44667e-005 to 8.44667e-005
Heightened Def Con from 8.44667e-005 to 8.44667e-005
Heightened Def Con from 8.44667e-005 to 8.44678e-005
Heightened Def Con from 8.44686e-005 to 8.44686e-005
Heightened Def Con from 8.44688e-005 to 8.44688e-005
Heightened Def Con from 8.44688e-005 to 8.44688e-005
Heightened Def Con from 8.44688e-005 to 8.44688e-005
Heightened Def Con from 8.44689e-005 to 8.44689e-005
Heightened Def Con from 8.44689e-005 to 8.447e-005
Heightened Def Con from 8.45132e-005 to 8.45144e-005
Heightened Def Con from 8.4516e-005 to 8.45161e-005
Heightened Def Con from 8.45161e-005 to 8.45191e-005
Heightened Def Con from 8.45577e-005 to 8.45577e-005
Heightened Def Con from 8.45579e-005 to 8.45579e-005
Heightened Def Con from 8.45579e-005 to 8.45579e-005
Heightened Def Con from 8.4558e-005 to 8.4559e-005
Heightened Def Con from 8.46023e-005 to 8.46023e-005
Heightened Def Con from 8.46023e-005 to 8.46024e-005
Heightened Def Con from 8.46024e-005 to 8.46024e-005
Heightened Def Con from 8.46025e-005 to 8.46025e-005
Heightened Def Con from 8.46025e-005 to 8.46035e-005
Heightened Def Con from 8.46054e-005 to 8.46065e-005
Heightened Def Con from 8.46468e-005 to 8.46468e-005
Heightened Def Con from 8.46469e-005 to 8.46469e-005
Heightened Def Con from 8.46469e-005 to 8.46499e-005
Heightened Def Con from 8.46913e-005 to 8.46913e-005
Heightened Def Con from 8.46913e-005 to 8.46915e-005
Heightened Def Con from 8.46915e-005 to 8.46915e-005
Heightened Def Con from 8.46915e-005 to 8.46915e-005
Heightened Def Con from 8.46915e-005 to 8.46915e-005
Heightened Def Con from 8.46915e-005 to 8.46915e-005
Heightened Def Con from 8.46916e-005 to 8.46916e-005
Heightened Def Con from 8.46916e-005 to 8.46916e-005
Heightened Def Con from 8.46916e-005 to 8.46946e-005
Heightened Def Con from 8.47357e-005 to 8.47357e-005
Heightened Def Con from 8.47358e-005 to 8.47358e-005
Heightened Def Con from 8.47359e-005 to 8.4736e-005
Heightened Def Con from 8.4736e-005 to 8.4736e-005
Heightened Def Con from 8.4736e-005 to 8.4736e-005
Heightened Def Con from 8.4736e-005 to 8.4736e-005
Heightened Def Con from 8.4736e-005 to 8.4736e-005
Heightened Def Con from 8.4736e-005 to 8.4736e-005
Heightened Def Con from 8.4736e-005 to 8.47372e-005
Heightened Def Con from 8.47803e-005 to 8.47813e-005
Heightened Def Con from 8.47814e-005 to 8.47815e-005
Heightened Def Con from 8.48221e-005 to 8.48233e-005
Heightened Def Con from 8.48248e-005 to 8.48248e-005
Heightened Def Con from 8.48248e-005 to 8.4825e-005
Heightened Def Con from 8.4825e-005 to 8.4825e-005
Heightened Def Con from 8.4825e-005 to 8.4825e-005
Heightened Def Con from 8.4825e-005 to 8.48271e-005
Heightened Def Con from 8.48693e-005 to 8.48693e-005
Heightened Def Con from 8.48694e-005 to 8.48694e-005
Heightened Def Con from 8.48694e-005 to 8.48694e-005
Heightened Def Con from 8.48694e-005 to 8.48704e-005
Heightened Def Con from 8.49109e-005 to 8.49109e-005
Heightened Def Con from 8.49109e-005 to 8.49109e-005
Heightened Def Con from 8.49109e-005 to 8.49109e-005
Heightened Def Con from 8.49109e-005 to 8.49111e-005
Heightened Def Con from 8.49111e-005 to 8.49114e-005
Heightened Def Con from 8.49152e-005 to 8.49153e-005
Heightened Def Con from 8.49581e-005 to 8.49582e-005
Heightened Def Con from 8.49583e-005 to 8.49584e-005
Heightened Def Con from 8.49584e-005 to 8.49584e-005
Heightened Def Con from 8.49584e-005 to 8.49584e-005
Heightened Def Con from 8.49584e-005 to 8.49584e-005
Heightened Def Con from 8.49584e-005 to 8.49584e-005
Heightened Def Con from 8.49584e-005 to 8.49584e-005
Heightened Def Con from 8.49584e-005 to 8.49584e-005
Heightened Def Con from 8.49584e-005 to 8.49585e-005
Heightened Def Con from 8.49585e-005 to 8.49585e-005
Heightened Def Con from 8.49585e-005 to 8.49615e-005
Heightened Def Con from 8.4999e-005 to 8.5001e-005
Heightened Def Con from 8.50024e-005 to 8.50025e-005
Heightened Def Con from 8.50027e-005 to 8.50027e-005
Heightened Def Con from 8.50027e-005 to 8.50027e-005
Heightened Def Con from 8.50027e-005 to 8.50027e-005
Heightened Def Con from 8.50028e-005 to 8.50028e-005
Heightened Def Con from 8.50028e-005 to 8.50028e-005
Heightened Def Con from 8.50028e-005 to 8.50028e-005
Heightened Def Con from 8.50028e-005 to 8.50028e-005
Heightened Def Con from 8.50028e-005 to 8.50028e-005
Heightened Def Con from 8.50028e-005 to 8.50038e-005
Heightened Def Con from 8.50038e-005 to 8.50038e-005
Heightened Def Con from 8.50038e-005 to 8.50039e-005
Heightened Def Con from 8.50468e-005 to 8.50468e-005
Heightened Def Con from 8.50471e-005 to 8.50471e-005
Heightened Def Con from 8.50471e-005 to 8.50471e-005
Heightened Def Con from 8.50472e-005 to 8.50473e-005
Heightened Def Con from 8.50473e-005 to 8.50473e-005
Heightened Def Con from 8.50473e-005 to 8.50473e-005
Heightened Def Con from 8.50473e-005 to 8.50473e-005
Heightened Def Con from 8.50474e-005 to 8.50484e-005
Heightened Def Con from 8.50485e-005 to 8.50487e-005
Heightened Def Con from 8.50513e-005 to 8.50543e-005
Heightened Def Con from 8.50886e-005 to 8.50886e-005
Heightened Def Con from 8.50886e-005 to 8.5089e-005
Heightened Def Con from 8.50915e-005 to 8.50915e-005
Heightened Def Con from 8.50916e-005 to 8.50916e-005
Heightened Def Con from 8.50917e-005 to 8.50917e-005
Heightened Def Con from 8.50917e-005 to 8.50917e-005
Heightened Def Con from 8.50917e-005 to 8.50927e-005
Heightened Def Con from 8.50927e-005 to 8.50927e-005
Heightened Def Con from 8.50927e-005 to 8.50927e-005
Heightened Def Con from 8.50928e-005 to 8.50948e-005
Heightened Def Con from 8.5136e-005 to 8.51362e-005
Heightened Def Con from 8.51362e-005 to 8.51362e-005
Heightened Def Con from 8.51363e-005 to 8.51363e-005
Heightened Def Con from 8.51363e-005 to 8.51393e-005
Heightened Def Con from 8.51768e-005 to 8.51778e-005
Heightened Def Con from 8.51804e-005 to 8.51805e-005
Heightened Def Con from 8.51805e-005 to 8.51805e-005
Heightened Def Con from 8.51805e-005 to 8.51805e-005
Heightened Def Con from 8.51806e-005 to 8.51806e-005
Heightened Def Con from 8.51806e-005 to 8.51806e-005
Heightened Def Con from 8.51806e-005 to 8.51806e-005
Heightened Def Con from 8.51806e-005 to 8.51806e-005
Heightened Def Con from 8.51807e-005 to 8.51807e-005
Heightened Def Con from 8.51807e-005 to 8.51807e-005
Heightened Def Con from 8.51807e-005 to 8.51807e-005
Heightened Def Con from 8.51807e-005 to 8.51807e-005
Heightened Def Con from 8.51807e-005 to 8.51817e-005
Heightened Def Con from 8.51818e-005 to 8.51818e-005
Heightened Def Con from 8.51818e-005 to 8.51848e-005
Heightened Def Con from 8.52246e-005 to 8.52246e-005
Heightened Def Con from 8.52249e-005 to 8.52249e-005
Heightened Def Con from 8.52249e-005 to 8.52252e-005
Heightened Def Con from 8.52252e-005 to 8.52252e-005
Heightened Def Con from 8.52252e-005 to 8.52263e-005
Heightened Def Con from 8.52263e-005 to 8.52264e-005
Heightened Def Con from 8.52265e-005 to 8.52286e-005
Heightened Def Con from 8.523e-005 to 8.5233e-005
Heightened Def Con from 8.52651e-005 to 8.52661e-005
Heightened Def Con from 8.52692e-005 to 8.52694e-005
Heightened Def Con from 8.52694e-005 to 8.52694e-005
Heightened Def Con from 8.52694e-005 to 8.52694e-005
Heightened Def Con from 8.52694e-005 to 8.52694e-005
Heightened Def Con from 8.52694e-005 to 8.52694e-005
Heightened Def Con from 8.52694e-005 to 8.52694e-005
Heightened Def Con from 8.52694e-005 to 8.52694e-005
Heightened Def Con from 8.52695e-005 to 8.52695e-005
Heightened Def Con from 8.52695e-005 to 8.52695e-005
Heightened Def Con from 8.52695e-005 to 8.52695e-005
Heightened Def Con from 8.52695e-005 to 8.52695e-005
Heightened Def Con from 8.52695e-005 to 8.52695e-005
Heightened Def Con from 8.52695e-005 to 8.52695e-005
Heightened Def Con from 8.52695e-005 to 8.52695e-005
Heightened Def Con from 8.52695e-005 to 8.52715e-005
Heightened Def Con from 8.53134e-005 to 8.53134e-005
Heightened Def Con from 8.53136e-005 to 8.53136e-005
Heightened Def Con from 8.53136e-005 to 8.53136e-005
Heightened Def Con from 8.53137e-005 to 8.53137e-005
Heightened Def Con from 8.53137e-005 to 8.53137e-005
Heightened Def Con from 8.53137e-005 to 8.53139e-005
Heightened Def Con from 8.53139e-005 to 8.53139e-005
Heightened Def Con from 8.53139e-005 to 8.53139e-005
Heightened Def Con from 8.53139e-005 to 8.53139e-005
Heightened Def Con from 8.53139e-005 to 8.53139e-005
Heightened Def Con from 8.53139e-005 to 8.53139e-005
Heightened Def Con from 8.53139e-005 to 8.53141e-005
Heightened Def Con from 8.53141e-005 to 8.53141e-005
Heightened Def Con from 8.53141e-005 to 8.53151e-005
Heightened Def Con from 8.53151e-005 to 8.53151e-005
Heightened Def Con from 8.53154e-005 to 8.53154e-005
Heightened Def Con from 8.53191e-005 to 8.53221e-005
Heightened Def Con from 8.53541e-005 to 8.53552e-005
Heightened Def Con from 8.5358e-005 to 8.5358e-005
Heightened Def Con from 8.5358e-005 to 8.5358e-005
Heightened Def Con from 8.5358e-005 to 8.5358e-005
Heightened Def Con from 8.53581e-005 to 8.53582e-005
Heightened Def Con from 8.53582e-005 to 8.53582e-005
Heightened Def Con from 8.53582e-005 to 8.53582e-005
Heightened Def Con from 8.53582e-005 to 8.53582e-005
Heightened Def Con from 8.53582e-005 to 8.53584e-005
Heightened Def Con from 8.53584e-005 to 8.53584e-005
Heightened Def Con from 8.53584e-005 to 8.53594e-005
Heightened Def Con from 8.53594e-005 to 8.53605e-005
Heightened Def Con from 8.54024e-005 to 8.54024e-005
Heightened Def Con from 8.54024e-005 to 8.54024e-005
Heightened Def Con from 8.54024e-005 to 8.54024e-005
Heightened Def Con from 8.54026e-005 to 8.54026e-005
Heightened Def Con from 8.54026e-005 to 8.54026e-005
Heightened Def Con from 8.54026e-005 to 8.54026e-005
Heightened Def Con from 8.54027e-005 to 8.54027e-005
Heightened Def Con from 8.54027e-005 to 8.54027e-005
Heightened Def Con from 8.54027e-005 to 8.54027e-005
Heightened Def Con from 8.54027e-005 to 8.54027e-005
Heightened Def Con from 8.54027e-005 to 8.54027e-005
Heightened Def Con from 8.54027e-005 to 8.54027e-005
Heightened Def Con from 8.54028e-005 to 8.54028e-005
Heightened Def Con from 8.54028e-005 to 8.54028e-005
Heightened Def Con from 8.54028e-005 to 8.54028e-005
Heightened Def Con from 8.54028e-005 to 8.54029e-005
Heightened Def Con from 8.54029e-005 to 8.54029e-005
Heightened Def Con from 8.54029e-005 to 8.54029e-005
Heightened Def Con from 8.54029e-005 to 8.54029e-005
Heightened Def Con from 8.54029e-005 to 8.54059e-005
Heightened Def Con from 8.54464e-005 to 8.54464e-005
Heightened Def Con from 8.54468e-005 to 8.54468e-005
Heightened Def Con from 8.54468e-005 to 8.54468e-005
Heightened Def Con from 8.54468e-005 to 8.54468e-005
Heightened Def Con from 8.54468e-005 to 8.54478e-005
Heightened Def Con from 8.54478e-005 to 8.545e-005
Heightened Def Con from 8.54918e-005 to 8.54918e-005
Heightened Def Con from 8.54918e-005 to 8.54918e-005
Heightened Def Con from 8.54918e-005 to 8.54918e-005
Heightened Def Con from 8.54918e-005 to 8.54918e-005
Heightened Def Con from 8.54918e-005 to 8.54918e-005
Heightened Def Con from 8.54918e-005 to 8.54918e-005
Heightened Def Con from 8.54919e-005 to 8.54919e-005
Heightened Def Con from 8.54919e-005 to 8.54919e-005
Heightened Def Con from 8.54919e-005 to 8.54919e-005
Heightened Def Con from 8.54919e-005 to 8.54919e-005
Heightened Def Con from 8.54919e-005 to 8.54919e-005
Heightened Def Con from 8.54919e-005 to 8.5492e-005
Heightened Def Con from 8.5492e-005 to 8.5492e-005
Heightened Def Con from 8.5492e-005 to 8.5492e-005
Heightened Def Con from 8.5492e-005 to 8.5492e-005
Heightened Def Con from 8.5492e-005 to 8.5492e-005
Heightened Def Con from 8.5492e-005 to 8.5492e-005
Heightened Def Con from 8.5492e-005 to 8.5492e-005
Heightened Def Con from 8.5492e-005 to 8.5492e-005
Heightened Def Con from 8.5492e-005 to 8.5495e-005
Heightened Def Con from 8.55305e-005 to 8.55309e-005
Heightened Def Con from 8.55311e-005 to 8.55322e-005
Heightened Def Con from 8.55353e-005 to 8.55354e-005
Heightened Def Con from 8.55355e-005 to 8.55356e-005
Heightened Def Con from 8.55357e-005 to 8.55357e-005
Heightened Def Con from 8.55358e-005 to 8.55358e-005
Heightened Def Con from 8.55358e-005 to 8.55358e-005
Heightened Def Con from 8.55358e-005 to 8.55358e-005
Heightened Def Con from 8.55359e-005 to 8.55359e-005
Heightened Def Con from 8.55359e-005 to 8.55359e-005
Heightened Def Con from 8.5536e-005 to 8.55361e-005
Heightened Def Con from 8.55361e-005 to 8.55361e-005
Heightened Def Con from 8.55361e-005 to 8.55361e-005
Heightened Def Con from 8.55361e-005 to 8.55361e-005
Heightened Def Con from 8.55361e-005 to 8.55361e-005
Heightened Def Con from 8.55361e-005 to 8.55361e-005
Heightened Def Con from 8.55361e-005 to 8.55361e-005
Heightened Def Con from 8.55361e-005 to 8.55362e-005
Heightened Def Con from 8.55363e-005 to 8.55363e-005
Heightened Def Con from 8.55363e-005 to 8.55363e-005
Heightened Def Con from 8.55363e-005 to 8.55363e-005
Heightened Def Con from 8.55363e-005 to 8.55363e-005
Heightened Def Con from 8.55363e-005 to 8.55363e-005
Heightened Def Con from 8.55363e-005 to 8.55363e-005
Heightened Def Con from 8.55363e-005 to 8.55363e-005
Heightened Def Con from 8.55363e-005 to 8.55363e-005
Heightened Def Con from 8.55363e-005 to 8.55363e-005
Heightened Def Con from 8.55363e-005 to 8.55363e-005
Heightened Def Con from 8.55363e-005 to 8.55363e-005
Heightened Def Con from 8.55363e-005 to 8.55373e-005
Heightened Def Con from 8.55373e-005 to 8.55373e-005
Heightened Def Con from 8.55375e-005 to 8.55385e-005
Heightened Def Con from 8.558e-005 to 8.558e-005
Heightened Def Con from 8.55801e-005 to 8.55804e-005
Heightened Def Con from 8.55804e-005 to 8.55804e-005
Heightened Def Con from 8.55804e-005 to 8.55804e-005
Heightened Def Con from 8.55804e-005 to 8.55804e-005
Heightened Def Con from 8.55804e-005 to 8.55804e-005
Heightened Def Con from 8.55804e-005 to 8.55805e-005
Heightened Def Con from 8.55805e-005 to 8.55805e-005
Heightened Def Con from 8.55805e-005 to 8.55805e-005
Heightened Def Con from 8.55805e-005 to 8.55805e-005
Heightened Def Con from 8.55805e-005 to 8.55805e-005
Heightened Def Con from 8.55805e-005 to 8.55805e-005
Heightened Def Con from 8.55806e-005 to 8.55807e-005
Heightened Def Con from 8.55807e-005 to 8.55807e-005
Heightened Def Con from 8.55807e-005 to 8.55807e-005
Heightened Def Con from 8.55807e-005 to 8.55807e-005
Heightened Def Con from 8.55807e-005 to 8.55807e-005
Heightened Def Con from 8.55807e-005 to 8.55807e-005
Heightened Def Con from 8.55807e-005 to 8.55807e-005
Heightened Def Con from 8.55807e-005 to 8.55807e-005
Heightened Def Con from 8.55807e-005 to 8.55807e-005
Heightened Def Con from 8.55807e-005 to 8.55807e-005
Heightened Def Con from 8.55807e-005 to 8.55807e-005
Heightened Def Con from 8.55807e-005 to 8.55807e-005
Heightened Def Con from 8.55807e-005 to 8.55807e-005
Heightened Def Con from 8.55807e-005 to 8.55807e-005
Heightened Def Con from 8.55807e-005 to 8.55807e-005
Heightened Def Con from 8.55807e-005 to 8.55807e-005
Heightened Def Con from 8.55807e-005 to 8.55807e-005
Heightened Def Con from 8.55807e-005 to 8.55807e-005
Heightened Def Con from 8.55807e-005 to 8.55807e-005
Heightened Def Con from 8.55807e-005 to 8.55807e-005
Heightened Def Con from 8.55807e-005 to 8.55807e-005
Heightened Def Con from 8.55807e-005 to 8.55807e-005
Heightened Def Con from 8.55807e-005 to 8.55807e-005
Heightened Def Con from 8.55807e-005 to 8.55807e-005
Heightened Def Con from 8.55807e-005 to 8.55807e-005
Heightened Def Con from 8.55807e-005 to 8.55807e-005
Heightened Def Con from 8.55807e-005 to 8.55807e-005
Heightened Def Con from 8.55807e-005 to 8.55807e-005
Heightened Def Con from 8.55807e-005 to 8.55807e-005
Heightened Def Con from 8.55807e-005 to 8.55807e-005
Heightened Def Con from 8.55807e-005 to 8.55807e-005
Heightened Def Con from 8.55807e-005 to 8.55808e-005
Heightened Def Con from 8.55808e-005 to 8.55808e-005
Heightened Def Con from 8.55808e-005 to 8.55808e-005
Heightened Def Con from 8.55808e-005 to 8.55808e-005
Heightened Def Con from 8.55808e-005 to 8.55808e-005
Heightened Def Con from 8.55808e-005 to 8.55808e-005
Heightened Def Con from 8.55808e-005 to 8.55808e-005
Heightened Def Con from 8.55808e-005 to 8.55808e-005
Heightened Def Con from 8.55808e-005 to 8.55808e-005
Heightened Def Con from 8.55808e-005 to 8.55818e-005
Heightened Def Con from 8.55818e-005 to 8.55818e-005
Heightened Def Con from 8.55818e-005 to 8.55819e-005
Heightened Def Con from 8.55819e-005 to 8.55819e-005
Heightened Def Con from 8.55819e-005 to 8.55819e-005
Heightened Def Con from 8.55819e-005 to 8.55829e-005
Heightened Def Con from 8.55832e-005 to 8.55834e-005
Heightened Def Con from 8.55869e-005 to 8.55879e-005
Heightened Def Con from 8.56188e-005 to 8.56208e-005
Heightened Def Con from 8.56241e-005 to 8.56241e-005
Heightened Def Con from 8.56243e-005 to 8.56244e-005
Heightened Def Con from 8.56246e-005 to 8.56246e-005
Heightened Def Con from 8.56246e-005 to 8.56246e-005
Heightened Def Con from 8.56247e-005 to 8.56247e-005
Heightened Def Con from 8.56247e-005 to 8.56247e-005
Heightened Def Con from 8.56247e-005 to 8.56247e-005
Heightened Def Con from 8.56247e-005 to 8.56247e-005
Heightened Def Con from 8.56248e-005 to 8.56248e-005
Heightened Def Con from 8.56248e-005 to 8.56248e-005
Heightened Def Con from 8.56249e-005 to 8.56249e-005
Heightened Def Con from 8.56249e-005 to 8.5625e-005
Heightened Def Con from 8.5625e-005 to 8.5626e-005
Heightened Def Con from 8.5626e-005 to 8.5626e-005
Heightened Def Con from 8.5626e-005 to 8.5626e-005
Heightened Def Con from 8.5626e-005 to 8.56272e-005
Heightened Def Con from 8.56688e-005 to 8.56688e-005
Heightened Def Con from 8.56691e-005 to 8.56692e-005
Heightened Def Con from 8.56693e-005 to 8.56693e-005
Heightened Def Con from 8.56693e-005 to 8.56693e-005
Heightened Def Con from 8.56693e-005 to 8.56693e-005
Heightened Def Con from 8.56693e-005 to 8.56693e-005
Heightened Def Con from 8.56693e-005 to 8.56693e-005
Heightened Def Con from 8.56693e-005 to 8.56693e-005
Heightened Def Con from 8.56694e-005 to 8.56694e-005
Heightened Def Con from 8.56695e-005 to 8.56695e-005
Heightened Def Con from 8.56695e-005 to 8.56695e-005
Heightened Def Con from 8.56695e-005 to 8.56696e-005
Heightened Def Con from 8.56696e-005 to 8.56696e-005
Heightened Def Con from 8.56696e-005 to 8.56697e-005
Heightened Def Con from 8.56697e-005 to 8.56698e-005
Heightened Def Con from 8.56698e-005 to 8.56698e-005
Heightened Def Con from 8.56698e-005 to 8.56698e-005
Heightened Def Con from 8.56698e-005 to 8.56698e-005
Heightened Def Con from 8.56698e-005 to 8.56698e-005
Heightened Def Con from 8.56698e-005 to 8.56698e-005
Heightened Def Con from 8.56698e-005 to 8.56698e-005
Heightened Def Con from 8.56698e-005 to 8.56698e-005
Heightened Def Con from 8.56698e-005 to 8.56698e-005
Heightened Def Con from 8.56698e-005 to 8.56698e-005
Heightened Def Con from 8.56698e-005 to 8.56698e-005
Heightened Def Con from 8.56698e-005 to 8.56698e-005
Heightened Def Con from 8.56698e-005 to 8.56698e-005
Heightened Def Con from 8.56698e-005 to 8.56698e-005
Heightened Def Con from 8.56698e-005 to 8.56698e-005
Heightened Def Con from 8.56698e-005 to 8.56698e-005
Heightened Def Con from 8.56698e-005 to 8.56698e-005
Heightened Def Con from 8.56698e-005 to 8.56698e-005
Heightened Def Con from 8.56698e-005 to 8.56698e-005
Heightened Def Con from 8.56698e-005 to 8.56698e-005
Heightened Def Con from 8.56698e-005 to 8.56699e-005
Heightened Def Con from 8.56699e-005 to 8.56699e-005
Heightened Def Con from 8.56699e-005 to 8.56699e-005
Heightened Def Con from 8.56699e-005 to 8.56699e-005
Heightened Def Con from 8.56699e-005 to 8.56699e-005
Heightened Def Con from 8.56699e-005 to 8.56699e-005
Heightened Def Con from 8.56699e-005 to 8.56699e-005
Heightened Def Con from 8.56699e-005 to 8.56699e-005
Heightened Def Con from 8.56699e-005 to 8.56699e-005
Heightened Def Con from 8.56699e-005 to 8.56699e-005
Heightened Def Con from 8.56699e-005 to 8.56699e-005
Heightened Def Con from 8.56699e-005 to 8.56699e-005
Heightened Def Con from 8.56699e-005 to 8.56701e-005
Heightened Def Con from 8.56701e-005 to 8.56701e-005
Heightened Def Con from 8.56701e-005 to 8.56711e-005
Heightened Def Con from 8.56711e-005 to 8.56712e-005
Heightened Def Con from 8.56712e-005 to 8.56712e-005
Heightened Def Con from 8.56712e-005 to 8.56712e-005
Heightened Def Con from 8.56712e-005 to 8.56722e-005
Heightened Def Con from 8.56766e-005 to 8.56766e-005
Heightened Def Con from 8.56766e-005 to 8.56767e-005
Heightened Def Con from 8.56767e-005 to 8.56797e-005
Heightened Def Con from 8.57073e-005 to 8.57103e-005
Heightened Def Con from 8.57128e-005 to 8.57128e-005
Heightened Def Con from 8.57135e-005 to 8.57135e-005
Heightened Def Con from 8.57135e-005 to 8.57135e-005
Heightened Def Con from 8.57135e-005 to 8.57135e-005
Heightened Def Con from 8.57136e-005 to 8.57137e-005
Heightened Def Con from 8.57137e-005 to 8.57137e-005
Heightened Def Con from 8.57137e-005 to 8.57137e-005
Heightened Def Con from 8.57137e-005 to 8.57137e-005
Heightened Def Con from 8.57137e-005 to 8.57137e-005
Heightened Def Con from 8.57137e-005 to 8.57137e-005
Heightened Def Con from 8.57137e-005 to 8.57137e-005
Heightened Def Con from 8.57138e-005 to 8.57138e-005
Heightened Def Con from 8.57138e-005 to 8.57138e-005
Heightened Def Con from 8.57138e-005 to 8.57138e-005
Heightened Def Con from 8.57138e-005 to 8.57138e-005
Heightened Def Con from 8.57138e-005 to 8.57138e-005
Heightened Def Con from 8.57138e-005 to 8.57138e-005
Heightened Def Con from 8.57138e-005 to 8.57138e-005
Heightened Def Con from 8.57138e-005 to 8.57138e-005
Heightened Def Con from 8.57138e-005 to 8.57138e-005
Heightened Def Con from 8.57138e-005 to 8.57138e-005
Heightened Def Con from 8.57138e-005 to 8.57149e-005
Heightened Def Con from 8.57149e-005 to 8.57149e-005
Heightened Def Con from 8.57149e-005 to 8.57149e-005
Heightened Def Con from 8.57149e-005 to 8.5715e-005
Heightened Def Con from 8.5715e-005 to 8.5715e-005
Heightened Def Con from 8.5715e-005 to 8.5715e-005
Heightened Def Con from 8.5715e-005 to 8.5715e-005
Heightened Def Con from 8.5715e-005 to 8.5715e-005
Heightened Def Con from 8.5715e-005 to 8.5715e-005
Heightened Def Con from 8.5715e-005 to 8.5715e-005
Heightened Def Con from 8.5715e-005 to 8.5715e-005
Heightened Def Con from 8.5715e-005 to 8.57171e-005
Heightened Def Con from 8.57569e-005 to 8.57569e-005
Heightened Def Con from 8.57574e-005 to 8.57574e-005
Heightened Def Con from 8.57575e-005 to 8.57575e-005
Heightened Def Con from 8.57577e-005 to 8.57577e-005
Heightened Def Con from 8.57577e-005 to 8.57577e-005
Heightened Def Con from 8.57577e-005 to 8.57578e-005
Heightened Def Con from 8.57579e-005 to 8.5758e-005
Heightened Def Con from 8.5758e-005 to 8.57581e-005
Heightened Def Con from 8.57581e-005 to 8.57581e-005
Heightened Def Con from 8.57581e-005 to 8.57583e-005
Heightened Def Con from 8.57583e-005 to 8.57583e-005
Heightened Def Con from 8.57583e-005 to 8.57583e-005
Heightened Def Con from 8.57583e-005 to 8.57583e-005
Heightened Def Con from 8.57583e-005 to 8.57583e-005
Heightened Def Con from 8.57583e-005 to 8.57585e-005
Heightened Def Con from 8.57585e-005 to 8.57595e-005
Heightened Def Con from 8.57595e-005 to 8.57595e-005
Heightened Def Con from 8.57595e-005 to 8.57596e-005
Heightened Def Con from 8.57596e-005 to 8.57606e-005
Heightened Def Con from 8.5766e-005 to 8.5768e-005
Heightened Def Con from 8.58018e-005 to 8.58018e-005
Heightened Def Con from 8.58019e-005 to 8.58019e-005
Heightened Def Con from 8.58019e-005 to 8.5802e-005
Heightened Def Con from 8.5802e-005 to 8.5802e-005
Heightened Def Con from 8.58021e-005 to 8.58021e-005
Heightened Def Con from 8.58022e-005 to 8.58022e-005
Heightened Def Con from 8.58022e-005 to 8.58022e-005
Heightened Def Con from 8.58023e-005 to 8.58023e-005
Heightened Def Con from 8.58023e-005 to 8.58023e-005
Heightened Def Con from 8.58023e-005 to 8.58023e-005
Heightened Def Con from 8.58023e-005 to 8.58023e-005
Heightened Def Con from 8.58023e-005 to 8.58023e-005
Heightened Def Con from 8.58023e-005 to 8.58023e-005
Heightened Def Con from 8.58024e-005 to 8.58024e-005
Heightened Def Con from 8.58024e-005 to 8.58024e-005
Heightened Def Con from 8.58024e-005 to 8.58024e-005
Heightened Def Con from 8.58024e-005 to 8.58024e-005
Heightened Def Con from 8.58024e-005 to 8.58024e-005
Heightened Def Con from 8.58024e-005 to 8.58024e-005
Heightened Def Con from 8.58024e-005 to 8.58024e-005
Heightened Def Con from 8.58024e-005 to 8.58024e-005
Heightened Def Con from 8.58024e-005 to 8.58025e-005
Heightened Def Con from 8.58025e-005 to 8.58025e-005
Heightened Def Con from 8.58025e-005 to 8.58025e-005
Heightened Def Con from 8.58025e-005 to 8.58025e-005
Heightened Def Con from 8.58025e-005 to 8.58025e-005
Heightened Def Con from 8.58025e-005 to 8.58025e-005
Heightened Def Con from 8.58025e-005 to 8.58025e-005
Heightened Def Con from 8.58025e-005 to 8.58025e-005
Heightened Def Con from 8.58025e-005 to 8.58025e-005
Heightened Def Con from 8.58025e-005 to 8.58025e-005
Heightened Def Con from 8.58025e-005 to 8.58025e-005
Heightened Def Con from 8.58025e-005 to 8.58025e-005
Heightened Def Con from 8.58025e-005 to 8.58025e-005
Heightened Def Con from 8.58025e-005 to 8.58025e-005
Heightened Def Con from 8.58025e-005 to 8.58025e-005
Heightened Def Con from 8.58025e-005 to 8.58025e-005
Heightened Def Con from 8.58025e-005 to 8.58025e-005
Heightened Def Con from 8.58025e-005 to 8.58025e-005
Heightened Def Con from 8.58025e-005 to 8.58025e-005
Heightened Def Con from 8.58025e-005 to 8.58025e-005
Heightened Def Con from 8.58025e-005 to 8.58025e-005
Heightened Def Con from 8.58025e-005 to 8.58025e-005
Heightened Def Con from 8.58025e-005 to 8.58025e-005
Heightened Def Con from 8.58025e-005 to 8.58025e-005
Heightened Def Con from 8.58025e-005 to 8.58025e-005
Heightened Def Con from 8.58025e-005 to 8.58025e-005
Heightened Def Con from 8.58025e-005 to 8.58025e-005
Heightened Def Con from 8.58026e-005 to 8.58026e-005
Heightened Def Con from 8.58026e-005 to 8.58026e-005
Heightened Def Con from 8.58026e-005 to 8.58026e-005
Heightened Def Con from 8.58026e-005 to 8.58036e-005
Heightened Def Con from 8.58036e-005 to 8.58036e-005
Heightened Def Con from 8.58036e-005 to 8.58036e-005
Heightened Def Con from 8.58036e-005 to 8.58036e-005
Heightened Def Con from 8.58036e-005 to 8.58036e-005
Heightened Def Con from 8.58036e-005 to 8.58046e-005
Heightened Def Con from 8.58049e-005 to 8.58049e-005
Heightened Def Con from 8.58049e-005 to 8.5805e-005
Heightened Def Con from 8.5805e-005 to 8.58061e-005
Heightened Def Con from 8.5846e-005 to 8.5847e-005
Heightened Def Con from 8.5847e-005 to 8.5847e-005
Heightened Def Con from 8.5847e-005 to 8.5847e-005
Heightened Def Con from 8.5847e-005 to 8.5847e-005
Heightened Def Con from 8.5847e-005 to 8.5847e-005
Heightened Def Con from 8.5847e-005 to 8.5847e-005
Heightened Def Con from 8.5847e-005 to 8.5847e-005
Heightened Def Con from 8.5847e-005 to 8.5847e-005
Heightened Def Con from 8.5847e-005 to 8.5847e-005
Heightened Def Con from 8.5847e-005 to 8.5847e-005
Heightened Def Con from 8.5847e-005 to 8.5848e-005
Heightened Def Con from 8.5848e-005 to 8.58491e-005
Heightened Def Con from 8.58548e-005 to 8.5855e-005
Heightened Def Con from 8.5855e-005 to 8.5855e-005
Heightened Def Con from 8.5855e-005 to 8.58552e-005
Heightened Def Con from 8.58552e-005 to 8.58562e-005
Heightened Def Con from 8.58562e-005 to 8.58562e-005
Heightened Def Con from 8.58562e-005 to 8.58572e-005
Heightened Def Con from 8.58826e-005 to 8.58847e-005
Heightened Def Con from 8.58897e-005 to 8.58898e-005
Heightened Def Con from 8.589e-005 to 8.58902e-005
Heightened Def Con from 8.58902e-005 to 8.58902e-005
Heightened Def Con from 8.58903e-005 to 8.58903e-005
Heightened Def Con from 8.58903e-005 to 8.58905e-005
Heightened Def Con from 8.58905e-005 to 8.58905e-005
Heightened Def Con from 8.58905e-005 to 8.58906e-005
Heightened Def Con from 8.58907e-005 to 8.58907e-005
Heightened Def Con from 8.58907e-005 to 8.58907e-005
Heightened Def Con from 8.58907e-005 to 8.58907e-005
Heightened Def Con from 8.58907e-005 to 8.58908e-005
Heightened Def Con from 8.58908e-005 to 8.58908e-005
Heightened Def Con from 8.58908e-005 to 8.58908e-005
Heightened Def Con from 8.58908e-005 to 8.58908e-005
Heightened Def Con from 8.58908e-005 to 8.58908e-005
Heightened Def Con from 8.58908e-005 to 8.58918e-005
Heightened Def Con from 8.58918e-005 to 8.58918e-005
Heightened Def Con from 8.58918e-005 to 8.58919e-005
Heightened Def Con from 8.58919e-005 to 8.58919e-005
Heightened Def Con from 8.5892e-005 to 8.5892e-005
Heightened Def Con from 8.5892e-005 to 8.5892e-005
Heightened Def Con from 8.5892e-005 to 8.58921e-005
Heightened Def Con from 8.58921e-005 to 8.58921e-005
Heightened Def Con from 8.58921e-005 to 8.58921e-005
Heightened Def Con from 8.58921e-005 to 8.58921e-005
Heightened Def Con from 8.58921e-005 to 8.58921e-005
Heightened Def Con from 8.58921e-005 to 8.58951e-005
Heightened Def Con from 8.59446e-005 to 8.59447e-005
Heightened Def Con from 8.59447e-005 to 8.59448e-005
Heightened Def Con from 8.59448e-005 to 8.59448e-005
Heightened Def Con from 8.59449e-005 to 8.59449e-005
Heightened Def Con from 8.59449e-005 to 8.59449e-005
Heightened Def Con from 8.59449e-005 to 8.5946e-005
Heightened Def Con from 8.59711e-005 to 8.59741e-005
Heightened Def Con from 8.59779e-005 to 8.59782e-005
Heightened Def Con from 8.59787e-005 to 8.59788e-005
Heightened Def Con from 8.5979e-005 to 8.59791e-005
Heightened Def Con from 8.59791e-005 to 8.59791e-005
Heightened Def Con from 8.59792e-005 to 8.59792e-005
Heightened Def Con from 8.59792e-005 to 8.59792e-005
Heightened Def Con from 8.59792e-005 to 8.59792e-005
Heightened Def Con from 8.59793e-005 to 8.59793e-005
Heightened Def Con from 8.59793e-005 to 8.59793e-005
Heightened Def Con from 8.59793e-005 to 8.59793e-005
Heightened Def Con from 8.59793e-005 to 8.59793e-005
Heightened Def Con from 8.59793e-005 to 8.59793e-005
Heightened Def Con from 8.59793e-005 to 8.59794e-005
Heightened Def Con from 8.59794e-005 to 8.59794e-005
Heightened Def Con from 8.59794e-005 to 8.59794e-005
Heightened Def Con from 8.59794e-005 to 8.59794e-005
Heightened Def Con from 8.59794e-005 to 8.59794e-005
Heightened Def Con from 8.59794e-005 to 8.59795e-005
Heightened Def Con from 8.59795e-005 to 8.59795e-005
Heightened Def Con from 8.59795e-005 to 8.59795e-005
Heightened Def Con from 8.59796e-005 to 8.59806e-005
Heightened Def Con from 8.59806e-005 to 8.59806e-005
Heightened Def Con from 8.59806e-005 to 8.59806e-005
Heightened Def Con from 8.59806e-005 to 8.59806e-005
Heightened Def Con from 8.59806e-005 to 8.59806e-005
Heightened Def Con from 8.59806e-005 to 8.59806e-005
Heightened Def Con from 8.59806e-005 to 8.59806e-005
Heightened Def Con from 8.59806e-005 to 8.59806e-005
Heightened Def Con from 8.59806e-005 to 8.59806e-005
Heightened Def Con from 8.59806e-005 to 8.59806e-005
Heightened Def Con from 8.59806e-005 to 8.59806e-005
Heightened Def Con from 8.59806e-005 to 8.59827e-005
Heightened Def Con from 8.60229e-005 to 8.60229e-005
Heightened Def Con from 8.6023e-005 to 8.6023e-005
Heightened Def Con from 8.60233e-005 to 8.60233e-005
Heightened Def Con from 8.60233e-005 to 8.60233e-005
Heightened Def Con from 8.60233e-005 to 8.60233e-005
Heightened Def Con from 8.60235e-005 to 8.60235e-005
Heightened Def Con from 8.60235e-005 to 8.60235e-005
Heightened Def Con from 8.60235e-005 to 8.60235e-005
Heightened Def Con from 8.60235e-005 to 8.60235e-005
Heightened Def Con from 8.60235e-005 to 8.60235e-005
Heightened Def Con from 8.60235e-005 to 8.60235e-005
Heightened Def Con from 8.60235e-005 to 8.60237e-005
Heightened Def Con from 8.60237e-005 to 8.60237e-005
Heightened Def Con from 8.60238e-005 to 8.60238e-005
Heightened Def Con from 8.60238e-005 to 8.60238e-005
Heightened Def Con from 8.60238e-005 to 8.60238e-005
Heightened Def Con from 8.60238e-005 to 8.60239e-005
Heightened Def Con from 8.60239e-005 to 8.60239e-005
Heightened Def Con from 8.60239e-005 to 8.60241e-005
Heightened Def Con from 8.60241e-005 to 8.60242e-005
Heightened Def Con from 8.60242e-005 to 8.60242e-005
Heightened Def Con from 8.60242e-005 to 8.60242e-005
Heightened Def Con from 8.60242e-005 to 8.60242e-005
Heightened Def Con from 8.60242e-005 to 8.60242e-005
Heightened Def Con from 8.60242e-005 to 8.60242e-005
Heightened Def Con from 8.60242e-005 to 8.60242e-005
Heightened Def Con from 8.60242e-005 to 8.60242e-005
Heightened Def Con from 8.60242e-005 to 8.60242e-005
Heightened Def Con from 8.60242e-005 to 8.60242e-005
Heightened Def Con from 8.60242e-005 to 8.60242e-005
Heightened Def Con from 8.60242e-005 to 8.60242e-005
Heightened Def Con from 8.60242e-005 to 8.60242e-005
Heightened Def Con from 8.60242e-005 to 8.60242e-005
Heightened Def Con from 8.60242e-005 to 8.60242e-005
Heightened Def Con from 8.60242e-005 to 8.60242e-005
Heightened Def Con from 8.60242e-005 to 8.60242e-005
Heightened Def Con from 8.60242e-005 to 8.60242e-005
Heightened Def Con from 8.60243e-005 to 8.60243e-005
Heightened Def Con from 8.60243e-005 to 8.60243e-005
Heightened Def Con from 8.60243e-005 to 8.60243e-005
Heightened Def Con from 8.60243e-005 to 8.60243e-005
Heightened Def Con from 8.60243e-005 to 8.60243e-005
Heightened Def Con from 8.60243e-005 to 8.60243e-005
Heightened Def Con from 8.60243e-005 to 8.60243e-005
Heightened Def Con from 8.60243e-005 to 8.60243e-005
Heightened Def Con from 8.60243e-005 to 8.60243e-005
Heightened Def Con from 8.60243e-005 to 8.60243e-005
Heightened Def Con from 8.60243e-005 to 8.60243e-005
Heightened Def Con from 8.60243e-005 to 8.60243e-005
Heightened Def Con from 8.60243e-005 to 8.60243e-005
Heightened Def Con from 8.60243e-005 to 8.60243e-005
Heightened Def Con from 8.60243e-005 to 8.60243e-005
Heightened Def Con from 8.60243e-005 to 8.60243e-005
Heightened Def Con from 8.60243e-005 to 8.60243e-005
Heightened Def Con from 8.60243e-005 to 8.60243e-005
Heightened Def Con from 8.60243e-005 to 8.60244e-005
Heightened Def Con from 8.60244e-005 to 8.60244e-005
Heightened Def Con from 8.60244e-005 to 8.60244e-005
Heightened Def Con from 8.60244e-005 to 8.60244e-005
Heightened Def Con from 8.60244e-005 to 8.60244e-005
Heightened Def Con from 8.60244e-005 to 8.60244e-005
Heightened Def Con from 8.60244e-005 to 8.60244e-005
Heightened Def Con from 8.60244e-005 to 8.60244e-005
Heightened Def Con from 8.60244e-005 to 8.60244e-005
Heightened Def Con from 8.60244e-005 to 8.60245e-005
Heightened Def Con from 8.60245e-005 to 8.60245e-005
Heightened Def Con from 8.60245e-005 to 8.60245e-005
Heightened Def Con from 8.60245e-005 to 8.60245e-005
Heightened Def Con from 8.60245e-005 to 8.60245e-005
Heightened Def Con from 8.60245e-005 to 8.60245e-005
Heightened Def Con from 8.60245e-005 to 8.60245e-005
Heightened Def Con from 8.60245e-005 to 8.60245e-005
Heightened Def Con from 8.60245e-005 to 8.60245e-005
Heightened Def Con from 8.60245e-005 to 8.60245e-005
Heightened Def Con from 8.60245e-005 to 8.60245e-005
Heightened Def Con from 8.60245e-005 to 8.60245e-005
Heightened Def Con from 8.60245e-005 to 8.60245e-005
Heightened Def Con from 8.60245e-005 to 8.60245e-005
Heightened Def Con from 8.60245e-005 to 8.60245e-005
Heightened Def Con from 8.60245e-005 to 8.60245e-005
Heightened Def Con from 8.60245e-005 to 8.60245e-005
Heightened Def Con from 8.60245e-005 to 8.60245e-005
Heightened Def Con from 8.60245e-005 to 8.60245e-005
Heightened Def Con from 8.60245e-005 to 8.60245e-005
Heightened Def Con from 8.60245e-005 to 8.60245e-005
Heightened Def Con from 8.60245e-005 to 8.60245e-005
Heightened Def Con from 8.60245e-005 to 8.60245e-005
Heightened Def Con from 8.60245e-005 to 8.60245e-005
Heightened Def Con from 8.60245e-005 to 8.60245e-005
Heightened Def Con from 8.60245e-005 to 8.60245e-005
Heightened Def Con from 8.60245e-005 to 8.60245e-005
Heightened Def Con from 8.60245e-005 to 8.60245e-005
Heightened Def Con from 8.60245e-005 to 8.60245e-005
Heightened Def Con from 8.60245e-005 to 8.60245e-005
Heightened Def Con from 8.60245e-005 to 8.60245e-005
Heightened Def Con from 8.60245e-005 to 8.60245e-005
Heightened Def Con from 8.60245e-005 to 8.60245e-005
Heightened Def Con from 8.60245e-005 to 8.60245e-005
Heightened Def Con from 8.60245e-005 to 8.60245e-005
Heightened Def Con from 8.60245e-005 to 8.60245e-005
Heightened Def Con from 8.60245e-005 to 8.60245e-005
Heightened Def Con from 8.60245e-005 to 8.60245e-005
Heightened Def Con from 8.60245e-005 to 8.60245e-005
Heightened Def Con from 8.60245e-005 to 8.60245e-005
Heightened Def Con from 8.60245e-005 to 8.60245e-005
Heightened Def Con from 8.60245e-005 to 8.60245e-005
Heightened Def Con from 8.60245e-005 to 8.60245e-005
Heightened Def Con from 8.60245e-005 to 8.60245e-005
Heightened Def Con from 8.60245e-005 to 8.60245e-005
Heightened Def Con from 8.60245e-005 to 8.60245e-005
Heightened Def Con from 8.60245e-005 to 8.60245e-005
Heightened Def Con from 8.60245e-005 to 8.60245e-005
Heightened Def Con from 8.60245e-005 to 8.60245e-005
Heightened Def Con from 8.60245e-005 to 8.60245e-005
Heightened Def Con from 8.60245e-005 to 8.60245e-005
Heightened Def Con from 8.60245e-005 to 8.60255e-005
Heightened Def Con from 8.60255e-005 to 8.60255e-005
Heightened Def Con from 8.60256e-005 to 8.60256e-005
Heightened Def Con from 8.60256e-005 to 8.60257e-005
Heightened Def Con from 8.60257e-005 to 8.60267e-005
Heightened Def Con from 8.60338e-005 to 8.60339e-005
Heightened Def Con from 8.60339e-005 to 8.60339e-005
Heightened Def Con from 8.60341e-005 to 8.60362e-005
Heightened Def Con from 8.60371e-005 to 8.60375e-005
Heightened Def Con from 8.60662e-005 to 8.60662e-005
Heightened Def Con from 8.6067e-005 to 8.6067e-005
Heightened Def Con from 8.6067e-005 to 8.60672e-005
Heightened Def Con from 8.60672e-005 to 8.60672e-005
Heightened Def Con from 8.60674e-005 to 8.60674e-005
Heightened Def Con from 8.60674e-005 to 8.60674e-005
Heightened Def Con from 8.60674e-005 to 8.60674e-005
Heightened Def Con from 8.60676e-005 to 8.60678e-005
Heightened Def Con from 8.60679e-005 to 8.60679e-005
Heightened Def Con from 8.60679e-005 to 8.60679e-005
Heightened Def Con from 8.60679e-005 to 8.60679e-005
Heightened Def Con from 8.60679e-005 to 8.60679e-005
Heightened Def Con from 8.6068e-005 to 8.6068e-005
Heightened Def Con from 8.6068e-005 to 8.6068e-005
Heightened Def Con from 8.6068e-005 to 8.6068e-005
Heightened Def Con from 8.6068e-005 to 8.6068e-005
Heightened Def Con from 8.6068e-005 to 8.6068e-005
Heightened Def Con from 8.60681e-005 to 8.60681e-005
Heightened Def Con from 8.60681e-005 to 8.60683e-005
Heightened Def Con from 8.60683e-005 to 8.60683e-005
Heightened Def Con from 8.60683e-005 to 8.60683e-005
Heightened Def Con from 8.60683e-005 to 8.60683e-005
Heightened Def Con from 8.60683e-005 to 8.60683e-005
Heightened Def Con from 8.60683e-005 to 8.60683e-005
Heightened Def Con from 8.60683e-005 to 8.60683e-005
Heightened Def Con from 8.60683e-005 to 8.60683e-005
Heightened Def Con from 8.60683e-005 to 8.60683e-005
Heightened Def Con from 8.60683e-005 to 8.60683e-005
Heightened Def Con from 8.60683e-005 to 8.60683e-005
Heightened Def Con from 8.60683e-005 to 8.60683e-005
Heightened Def Con from 8.60683e-005 to 8.60683e-005
Heightened Def Con from 8.60683e-005 to 8.60683e-005
Heightened Def Con from 8.60683e-005 to 8.60683e-005
Heightened Def Con from 8.60683e-005 to 8.60683e-005
Heightened Def Con from 8.60683e-005 to 8.60683e-005
Heightened Def Con from 8.60683e-005 to 8.60683e-005
Heightened Def Con from 8.60683e-005 to 8.60683e-005
Heightened Def Con from 8.60683e-005 to 8.60683e-005
Heightened Def Con from 8.60683e-005 to 8.60683e-005
Heightened Def Con from 8.60683e-005 to 8.60683e-005
Heightened Def Con from 8.60683e-005 to 8.60683e-005
Heightened Def Con from 8.60683e-005 to 8.60683e-005
Heightened Def Con from 8.60683e-005 to 8.60683e-005
Heightened Def Con from 8.60683e-005 to 8.60684e-005
Heightened Def Con from 8.60684e-005 to 8.60684e-005
Heightened Def Con from 8.60684e-005 to 8.60684e-005
Heightened Def Con from 8.60684e-005 to 8.60684e-005
Heightened Def Con from 8.60684e-005 to 8.60684e-005
Heightened Def Con from 8.60684e-005 to 8.60684e-005
Heightened Def Con from 8.60684e-005 to 8.60684e-005
Heightened Def Con from 8.60684e-005 to 8.60684e-005
Heightened Def Con from 8.60684e-005 to 8.60684e-005
Heightened Def Con from 8.60684e-005 to 8.60684e-005
Heightened Def Con from 8.60684e-005 to 8.60684e-005
Heightened Def Con from 8.60684e-005 to 8.60684e-005
Heightened Def Con from 8.60684e-005 to 8.60694e-005
Heightened Def Con from 8.60694e-005 to 8.60704e-005
Heightened Def Con from 8.60704e-005 to 8.60715e-005
Heightened Def Con from 8.61115e-005 to 8.61125e-005
Heightened Def Con from 8.61125e-005 to 8.61128e-005
Heightened Def Con from 8.61128e-005 to 8.61128e-005
Heightened Def Con from 8.61128e-005 to 8.61128e-005
Heightened Def Con from 8.61128e-005 to 8.61128e-005
Heightened Def Con from 8.61128e-005 to 8.6113e-005
Heightened Def Con from 8.6113e-005 to 8.6113e-005
Heightened Def Con from 8.6113e-005 to 8.6113e-005
Heightened Def Con from 8.6113e-005 to 8.6113e-005
Heightened Def Con from 8.6113e-005 to 8.61131e-005
Heightened Def Con from 8.61131e-005 to 8.61131e-005
Heightened Def Con from 8.61131e-005 to 8.61132e-005
Heightened Def Con from 8.61132e-005 to 8.61132e-005
Heightened Def Con from 8.61132e-005 to 8.61132e-005
Heightened Def Con from 8.61132e-005 to 8.61132e-005
Heightened Def Con from 8.61132e-005 to 8.61133e-005
Heightened Def Con from 8.61133e-005 to 8.61133e-005
Heightened Def Con from 8.61133e-005 to 8.61133e-005
Heightened Def Con from 8.61133e-005 to 8.61133e-005
Heightened Def Con from 8.61133e-005 to 8.61143e-005
Heightened Def Con from 8.61143e-005 to 8.61143e-005
Heightened Def Con from 8.61143e-005 to 8.61143e-005
Heightened Def Con from 8.61143e-005 to 8.61143e-005
Heightened Def Con from 8.61143e-005 to 8.61143e-005
Heightened Def Con from 8.61143e-005 to 8.61143e-005
Heightened Def Con from 8.61143e-005 to 8.61143e-005
Heightened Def Con from 8.61143e-005 to 8.61143e-005
Heightened Def Con from 8.61143e-005 to 8.61143e-005
Heightened Def Con from 8.61143e-005 to 8.61143e-005
Heightened Def Con from 8.61143e-005 to 8.61143e-005
Heightened Def Con from 8.61143e-005 to 8.61143e-005
Heightened Def Con from 8.61143e-005 to 8.61143e-005
Heightened Def Con from 8.61143e-005 to 8.61143e-005
Heightened Def Con from 8.61143e-005 to 8.61143e-005
Heightened Def Con from 8.61143e-005 to 8.61163e-005
Heightened Def Con from 8.61166e-005 to 8.61196e-005
Heightened Def Con from 8.61239e-005 to 8.6124e-005
Heightened Def Con from 8.6124e-005 to 8.61252e-005
Heightened Def Con from 8.61256e-005 to 8.61286e-005
Heightened Def Con from 8.61455e-005 to 8.61455e-005
Heightened Def Con from 8.61455e-005 to 8.61455e-005
Heightened Def Con from 8.61456e-005 to 8.61458e-005
Heightened Def Con from 8.61459e-005 to 8.61462e-005
Heightened Def Con from 8.61462e-005 to 8.61462e-005
Heightened Def Con from 8.61462e-005 to 8.61463e-005
Heightened Def Con from 8.61463e-005 to 8.61475e-005
Heightened Def Con from 8.61548e-005 to 8.61549e-005
Heightened Def Con from 8.61555e-005 to 8.61565e-005
Heightened Def Con from 8.61565e-005 to 8.61565e-005
Heightened Def Con from 8.61565e-005 to 8.61565e-005
Heightened Def Con from 8.61565e-005 to 8.61565e-005
Heightened Def Con from 8.61565e-005 to 8.61565e-005
Heightened Def Con from 8.61566e-005 to 8.61566e-005
Heightened Def Con from 8.61566e-005 to 8.61566e-005
Heightened Def Con from 8.61566e-005 to 8.61566e-005
Heightened Def Con from 8.61566e-005 to 8.61566e-005
Heightened Def Con from 8.61566e-005 to 8.61566e-005
Heightened Def Con from 8.61566e-005 to 8.61566e-005
Heightened Def Con from 8.61567e-005 to 8.61567e-005
Heightened Def Con from 8.61567e-005 to 8.61567e-005
Heightened Def Con from 8.61567e-005 to 8.61567e-005
Heightened Def Con from 8.61567e-005 to 8.61567e-005
Heightened Def Con from 8.61567e-005 to 8.61567e-005
Heightened Def Con from 8.61567e-005 to 8.61567e-005
Heightened Def Con from 8.61567e-005 to 8.61567e-005
Heightened Def Con from 8.61567e-005 to 8.61567e-005
Heightened Def Con from 8.61567e-005 to 8.61567e-005
Heightened Def Con from 8.61567e-005 to 8.61567e-005
Heightened Def Con from 8.61567e-005 to 8.61569e-005
Heightened Def Con from 8.61569e-005 to 8.61569e-005
Heightened Def Con from 8.61569e-005 to 8.61569e-005
Heightened Def Con from 8.61569e-005 to 8.61569e-005
Heightened Def Con from 8.61569e-005 to 8.61569e-005
Heightened Def Con from 8.61569e-005 to 8.61569e-005
Heightened Def Con from 8.61569e-005 to 8.61569e-005
Heightened Def Con from 8.61569e-005 to 8.61569e-005
Heightened Def Con from 8.61569e-005 to 8.61569e-005
Heightened Def Con from 8.61569e-005 to 8.61569e-005
Heightened Def Con from 8.61569e-005 to 8.61579e-005
Heightened Def Con from 8.61579e-005 to 8.61579e-005
Heightened Def Con from 8.61579e-005 to 8.61579e-005
Heightened Def Con from 8.61579e-005 to 8.61579e-005
Heightened Def Con from 8.61579e-005 to 8.61579e-005
Heightened Def Con from 8.61579e-005 to 8.61581e-005
Heightened Def Con from 8.61581e-005 to 8.61581e-005
Heightened Def Con from 8.61581e-005 to 8.61592e-005
Heightened Def Con from 8.61593e-005 to 8.61603e-005
Heightened Def Con from 8.61603e-005 to 8.61613e-005
Heightened Def Con from 8.61995e-005 to 8.61998e-005
Heightened Def Con from 8.62001e-005 to 8.62001e-005
Heightened Def Con from 8.62005e-005 to 8.62006e-005
Heightened Def Con from 8.62006e-005 to 8.62006e-005
Heightened Def Con from 8.62006e-005 to 8.62006e-005
Heightened Def Con from 8.62007e-005 to 8.62007e-005
Heightened Def Con from 8.62007e-005 to 8.62007e-005
Heightened Def Con from 8.62007e-005 to 8.62007e-005
Heightened Def Con from 8.62007e-005 to 8.62007e-005
Heightened Def Con from 8.62008e-005 to 8.62008e-005
Heightened Def Con from 8.62008e-005 to 8.62008e-005
Heightened Def Con from 8.62008e-005 to 8.62008e-005
Heightened Def Con from 8.62009e-005 to 8.62011e-005
Heightened Def Con from 8.62012e-005 to 8.62012e-005
Heightened Def Con from 8.62012e-005 to 8.62012e-005
Heightened Def Con from 8.62013e-005 to 8.62013e-005
Heightened Def Con from 8.62013e-005 to 8.62013e-005
Heightened Def Con from 8.62013e-005 to 8.62013e-005
Heightened Def Con from 8.62013e-005 to 8.62013e-005
Heightened Def Con from 8.62013e-005 to 8.62013e-005
Heightened Def Con from 8.62013e-005 to 8.62013e-005
Heightened Def Con from 8.62013e-005 to 8.62013e-005
Heightened Def Con from 8.62013e-005 to 8.62013e-005
Heightened Def Con from 8.62013e-005 to 8.62013e-005
Heightened Def Con from 8.62013e-005 to 8.62013e-005
Heightened Def Con from 8.62013e-005 to 8.62013e-005
Heightened Def Con from 8.62013e-005 to 8.62013e-005
Heightened Def Con from 8.62014e-005 to 8.62014e-005
Heightened Def Con from 8.62014e-005 to 8.62024e-005
Heightened Def Con from 8.62024e-005 to 8.62024e-005
Heightened Def Con from 8.62024e-005 to 8.62025e-005
Heightened Def Con from 8.62025e-005 to 8.62025e-005
Heightened Def Con from 8.62025e-005 to 8.62025e-005
Heightened Def Con from 8.62025e-005 to 8.62025e-005
Heightened Def Con from 8.62025e-005 to 8.62025e-005
Heightened Def Con from 8.62025e-005 to 8.62025e-005
Heightened Def Con from 8.62025e-005 to 8.62045e-005
Heightened Def Con from 8.62143e-005 to 8.62145e-005
Heightened Def Con from 8.62145e-005 to 8.62175e-005
Heightened Def Con from 8.62436e-005 to 8.62436e-005
Heightened Def Con from 8.62436e-005 to 8.62438e-005
Heightened Def Con from 8.62438e-005 to 8.62438e-005
Heightened Def Con from 8.62442e-005 to 8.62442e-005
Heightened Def Con from 8.62442e-005 to 8.62442e-005
Heightened Def Con from 8.62442e-005 to 8.62442e-005
Heightened Def Con from 8.62442e-005 to 8.62442e-005
Heightened Def Con from 8.62444e-005 to 8.62444e-005
Heightened Def Con from 8.62444e-005 to 8.62445e-005
Heightened Def Con from 8.62445e-005 to 8.62445e-005
Heightened Def Con from 8.62446e-005 to 8.62447e-005
Heightened Def Con from 8.62448e-005 to 8.62448e-005
Heightened Def Con from 8.62448e-005 to 8.62448e-005
Heightened Def Con from 8.62448e-005 to 8.62448e-005
Heightened Def Con from 8.62448e-005 to 8.62448e-005
Heightened Def Con from 8.62449e-005 to 8.62449e-005
Heightened Def Con from 8.62449e-005 to 8.62449e-005
Heightened Def Con from 8.6245e-005 to 8.6245e-005
Heightened Def Con from 8.6245e-005 to 8.6245e-005
Heightened Def Con from 8.6245e-005 to 8.6245e-005
Heightened Def Con from 8.6245e-005 to 8.62451e-005
Heightened Def Con from 8.62451e-005 to 8.62452e-005
Heightened Def Con from 8.62452e-005 to 8.62453e-005
Heightened Def Con from 8.62453e-005 to 8.62453e-005
Heightened Def Con from 8.62453e-005 to 8.62454e-005
Heightened Def Con from 8.62454e-005 to 8.62455e-005
Heightened Def Con from 8.62455e-005 to 8.62455e-005
Heightened Def Con from 8.62455e-005 to 8.62455e-005
Heightened Def Con from 8.62455e-005 to 8.62455e-005
Heightened Def Con from 8.62455e-005 to 8.62455e-005
Heightened Def Con from 8.62455e-005 to 8.62455e-005
Heightened Def Con from 8.62455e-005 to 8.62455e-005
Heightened Def Con from 8.62455e-005 to 8.62455e-005
Heightened Def Con from 8.62455e-005 to 8.62455e-005
Heightened Def Con from 8.62455e-005 to 8.62455e-005
Heightened Def Con from 8.62455e-005 to 8.62455e-005
Heightened Def Con from 8.62455e-005 to 8.62455e-005
Heightened Def Con from 8.62455e-005 to 8.62455e-005
Heightened Def Con from 8.62455e-005 to 8.62455e-005
Heightened Def Con from 8.62455e-005 to 8.62455e-005
Heightened Def Con from 8.62455e-005 to 8.62455e-005
Heightened Def Con from 8.62455e-005 to 8.62455e-005
Heightened Def Con from 8.62455e-005 to 8.62455e-005
Heightened Def Con from 8.62455e-005 to 8.62455e-005
Heightened Def Con from 8.62455e-005 to 8.62455e-005
Heightened Def Con from 8.62455e-005 to 8.62456e-005
Heightened Def Con from 8.62456e-005 to 8.62456e-005
Heightened Def Con from 8.62456e-005 to 8.62456e-005
Heightened Def Con from 8.62456e-005 to 8.62456e-005
Heightened Def Con from 8.62456e-005 to 8.62456e-005
Heightened Def Con from 8.62456e-005 to 8.62456e-005
Heightened Def Con from 8.62456e-005 to 8.62456e-005
Heightened Def Con from 8.62456e-005 to 8.62456e-005
Heightened Def Con from 8.62456e-005 to 8.62456e-005
Heightened Def Con from 8.62456e-005 to 8.62456e-005
Heightened Def Con from 8.62456e-005 to 8.62456e-005
Heightened Def Con from 8.62456e-005 to 8.62456e-005
Heightened Def Con from 8.62456e-005 to 8.62456e-005
Heightened Def Con from 8.62456e-005 to 8.62456e-005
Heightened Def Con from 8.62456e-005 to 8.62456e-005
Heightened Def Con from 8.62456e-005 to 8.62456e-005
Heightened Def Con from 8.62456e-005 to 8.62456e-005
Heightened Def Con from 8.62456e-005 to 8.62456e-005
Heightened Def Con from 8.62456e-005 to 8.62456e-005
Heightened Def Con from 8.62456e-005 to 8.62456e-005
Heightened Def Con from 8.62456e-005 to 8.62456e-005
Heightened Def Con from 8.62456e-005 to 8.62456e-005
Heightened Def Con from 8.62456e-005 to 8.62456e-005
Heightened Def Con from 8.62456e-005 to 8.62466e-005
Heightened Def Con from 8.62466e-005 to 8.62466e-005
Heightened Def Con from 8.62466e-005 to 8.62466e-005
Heightened Def Con from 8.62466e-005 to 8.62466e-005
Heightened Def Con from 8.62466e-005 to 8.62466e-005
Heightened Def Con from 8.62466e-005 to 8.62466e-005
Heightened Def Con from 8.62466e-005 to 8.62466e-005
Heightened Def Con from 8.62466e-005 to 8.62466e-005
Heightened Def Con from 8.62466e-005 to 8.62477e-005
Heightened Def Con from 8.62477e-005 to 8.62488e-005
Heightened Def Con from 8.62493e-005 to 8.62493e-005
Heightened Def Con from 8.62493e-005 to 8.62493e-005
Heightened Def Con from 8.62588e-005 to 8.62599e-005
Heightened Def Con from 8.62882e-005 to 8.62882e-005
Heightened Def Con from 8.62882e-005 to 8.62882e-005
Heightened Def Con from 8.62882e-005 to 8.62884e-005
Heightened Def Con from 8.62888e-005 to 8.62891e-005
Heightened Def Con from 8.62891e-005 to 8.62892e-005
Heightened Def Con from 8.62892e-005 to 8.62892e-005
Heightened Def Con from 8.62893e-005 to 8.62893e-005
Heightened Def Con from 8.62893e-005 to 8.62893e-005
Heightened Def Con from 8.62893e-005 to 8.62893e-005
Heightened Def Con from 8.62893e-005 to 8.62893e-005
Heightened Def Con from 8.62893e-005 to 8.62903e-005
Heightened Def Con from 8.62903e-005 to 8.62903e-005
Heightened Def Con from 8.62903e-005 to 8.62903e-005
Heightened Def Con from 8.62903e-005 to 8.62903e-005
Heightened Def Con from 8.62903e-005 to 8.62903e-005
Heightened Def Con from 8.62903e-005 to 8.62923e-005
Heightened Def Con from 8.62923e-005 to 8.62923e-005
Heightened Def Con from 8.62923e-005 to 8.62923e-005
Heightened Def Con from 8.62923e-005 to 8.62923e-005
Heightened Def Con from 8.62924e-005 to 8.62934e-005
Heightened Def Con from 8.62934e-005 to 8.62934e-005
Heightened Def Con from 8.62934e-005 to 8.62934e-005
Heightened Def Con from 8.62938e-005 to 8.62958e-005
Heightened Def Con from 8.63035e-005 to 8.63036e-005
Heightened Def Con from 8.63046e-005 to 8.63046e-005
Heightened Def Con from 8.63046e-005 to 8.63047e-005
Heightened Def Con from 8.63047e-005 to 8.63049e-005
Heightened Def Con from 8.63049e-005 to 8.63051e-005
Heightened Def Con from 8.63051e-005 to 8.63053e-005
Heightened Def Con from 8.63053e-005 to 8.63053e-005
Heightened Def Con from 8.63053e-005 to 8.63073e-005
Heightened Def Con from 8.63073e-005 to 8.63103e-005
Heightened Def Con from 8.63325e-005 to 8.63325e-005
Heightened Def Con from 8.63328e-005 to 8.63329e-005
Heightened Def Con from 8.6333e-005 to 8.63333e-005
Heightened Def Con from 8.63333e-005 to 8.63333e-005
Heightened Def Con from 8.63335e-005 to 8.63338e-005
Heightened Def Con from 8.63338e-005 to 8.63338e-005
Heightened Def Con from 8.63338e-005 to 8.63338e-005
Heightened Def Con from 8.63338e-005 to 8.63338e-005
Heightened Def Con from 8.63338e-005 to 8.63338e-005
Heightened Def Con from 8.63338e-005 to 8.63338e-005
Heightened Def Con from 8.63338e-005 to 8.63339e-005
Heightened Def Con from 8.63339e-005 to 8.63339e-005
Heightened Def Con from 8.63339e-005 to 8.63339e-005
Heightened Def Con from 8.63339e-005 to 8.63339e-005
Heightened Def Con from 8.63339e-005 to 8.63339e-005
Heightened Def Con from 8.63339e-005 to 8.63339e-005
Heightened Def Con from 8.63339e-005 to 8.63339e-005
Heightened Def Con from 8.63339e-005 to 8.63339e-005
Heightened Def Con from 8.63339e-005 to 8.63339e-005
Heightened Def Con from 8.63339e-005 to 8.63339e-005
Heightened Def Con from 8.63339e-005 to 8.63339e-005
Heightened Def Con from 8.63339e-005 to 8.63339e-005
Heightened Def Con from 8.63339e-005 to 8.63339e-005
Heightened Def Con from 8.63339e-005 to 8.63339e-005
Heightened Def Con from 8.63339e-005 to 8.63339e-005
Heightened Def Con from 8.63339e-005 to 8.63339e-005
Heightened Def Con from 8.63339e-005 to 8.63339e-005
Heightened Def Con from 8.63339e-005 to 8.63339e-005
Heightened Def Con from 8.63339e-005 to 8.63339e-005
Heightened Def Con from 8.63339e-005 to 8.63339e-005
Heightened Def Con from 8.63339e-005 to 8.63339e-005
Heightened Def Con from 8.6334e-005 to 8.63341e-005
Heightened Def Con from 8.63341e-005 to 8.63341e-005
Heightened Def Con from 8.63341e-005 to 8.63341e-005
Heightened Def Con from 8.63341e-005 to 8.63341e-005
Heightened Def Con from 8.63341e-005 to 8.63341e-005
Heightened Def Con from 8.63341e-005 to 8.63341e-005
Heightened Def Con from 8.63341e-005 to 8.63341e-005
Heightened Def Con from 8.63341e-005 to 8.63341e-005
Heightened Def Con from 8.63341e-005 to 8.63341e-005
Heightened Def Con from 8.63341e-005 to 8.63341e-005
Heightened Def Con from 8.63341e-005 to 8.63341e-005
Heightened Def Con from 8.63341e-005 to 8.63341e-005
Heightened Def Con from 8.63341e-005 to 8.63341e-005
Heightened Def Con from 8.63341e-005 to 8.63342e-005
Heightened Def Con from 8.63342e-005 to 8.63342e-005
Heightened Def Con from 8.63342e-005 to 8.63342e-005
Heightened Def Con from 8.63342e-005 to 8.63342e-005
Heightened Def Con from 8.63342e-005 to 8.63342e-005
Heightened Def Con from 8.63342e-005 to 8.63342e-005
Heightened Def Con from 8.63342e-005 to 8.63342e-005
Heightened Def Con from 8.63342e-005 to 8.63342e-005
Heightened Def Con from 8.63342e-005 to 8.63342e-005
Heightened Def Con from 8.63342e-005 to 8.63342e-005
Heightened Def Con from 8.63342e-005 to 8.63342e-005
Heightened Def Con from 8.63342e-005 to 8.63343e-005
Heightened Def Con from 8.63343e-005 to 8.63343e-005
Heightened Def Con from 8.63343e-005 to 8.63343e-005
Heightened Def Con from 8.63343e-005 to 8.63343e-005
Heightened Def Con from 8.63343e-005 to 8.63343e-005
Heightened Def Con from 8.63343e-005 to 8.63343e-005
Heightened Def Con from 8.63343e-005 to 8.63343e-005
Heightened Def Con from 8.63343e-005 to 8.63343e-005
Heightened Def Con from 8.63343e-005 to 8.63343e-005
Heightened Def Con from 8.63343e-005 to 8.63343e-005
Heightened Def Con from 8.63343e-005 to 8.63343e-005
Heightened Def Con from 8.63343e-005 to 8.63343e-005
Heightened Def Con from 8.63343e-005 to 8.63343e-005
Heightened Def Con from 8.63343e-005 to 8.63343e-005
Heightened Def Con from 8.63343e-005 to 8.63343e-005
Heightened Def Con from 8.63343e-005 to 8.63343e-005
Heightened Def Con from 8.63343e-005 to 8.63343e-005
Heightened Def Con from 8.63343e-005 to 8.63343e-005
Heightened Def Con from 8.63343e-005 to 8.63343e-005
Heightened Def Con from 8.63343e-005 to 8.63343e-005
Heightened Def Con from 8.63343e-005 to 8.63343e-005
Heightened Def Con from 8.63343e-005 to 8.63343e-005
Heightened Def Con from 8.63343e-005 to 8.63343e-005
Heightened Def Con from 8.63343e-005 to 8.63343e-005
Heightened Def Con from 8.63343e-005 to 8.63343e-005
Heightened Def Con from 8.63343e-005 to 8.63343e-005
Heightened Def Con from 8.63343e-005 to 8.63343e-005
Heightened Def Con from 8.63343e-005 to 8.63343e-005
Heightened Def Con from 8.63343e-005 to 8.63353e-005
Heightened Def Con from 8.63353e-005 to 8.63353e-005
Heightened Def Con from 8.63353e-005 to 8.63353e-005
Heightened Def Con from 8.63353e-005 to 8.63353e-005
Heightened Def Con from 8.63353e-005 to 8.63353e-005
Heightened Def Con from 8.63353e-005 to 8.63353e-005
Heightened Def Con from 8.63353e-005 to 8.63353e-005
Heightened Def Con from 8.63353e-005 to 8.63363e-005
Heightened Def Con from 8.63363e-005 to 8.63363e-005
Heightened Def Con from 8.63363e-005 to 8.63366e-005
Heightened Def Con from 8.63366e-005 to 8.63366e-005
Heightened Def Con from 8.63366e-005 to 8.63367e-005
Heightened Def Con from 8.63367e-005 to 8.63387e-005
Heightened Def Con from 8.63474e-005 to 8.63474e-005
Heightened Def Con from 8.63475e-005 to 8.63505e-005
Heightened Def Con from 8.6375e-005 to 8.63753e-005
Heightened Def Con from 8.63758e-005 to 8.63758e-005
Heightened Def Con from 8.63762e-005 to 8.63762e-005
Heightened Def Con from 8.63772e-005 to 8.63772e-005
Heightened Def Con from 8.63772e-005 to 8.63772e-005
Heightened Def Con from 8.63773e-005 to 8.63774e-005
Heightened Def Con from 8.63775e-005 to 8.63775e-005
Heightened Def Con from 8.63775e-005 to 8.63775e-005
Heightened Def Con from 8.63775e-005 to 8.63775e-005
Heightened Def Con from 8.63775e-005 to 8.63776e-005
Heightened Def Con from 8.63776e-005 to 8.63776e-005
Heightened Def Con from 8.63776e-005 to 8.63777e-005
Heightened Def Con from 8.63778e-005 to 8.63778e-005
Heightened Def Con from 8.63778e-005 to 8.63778e-005
Heightened Def Con from 8.63778e-005 to 8.63778e-005
Heightened Def Con from 8.63778e-005 to 8.63778e-005
Heightened Def Con from 8.63778e-005 to 8.63788e-005
Heightened Def Con from 8.63788e-005 to 8.63788e-005
Heightened Def Con from 8.63789e-005 to 8.63789e-005
Heightened Def Con from 8.63789e-005 to 8.63789e-005
Heightened Def Con from 8.63789e-005 to 8.63789e-005
Heightened Def Con from 8.63789e-005 to 8.63789e-005
Heightened Def Con from 8.63789e-005 to 8.63789e-005
[...]
Heightened Def Con from 8.72582e-005 to 8.72582e-005
Heightened Def Con from 8.72583e-005 to 8.72583e-005
Heightened Def Con from 8.72583e-005 to 8.72583e-005
Heightened Def Con from 8.72584e-005 to 8.72584e-005
Heightened Def Con from 8.72584e-005 to 8.72584e-005
Heightened Def Con from 8.72584e-005 to 8.72584e-005
Heightened Def Con from 8.72584e-005 to 8.72586e-005
Heightened Def Con from 8.72586e-005 to 8.72587e-005
Heightened Def Con from 8.72587e-005 to 8.72588e-005
Heightened Def Con from 8.72588e-005 to 8.72588e-005
Heightened Def Con from 8.72588e-005 to 8.72589e-005
Heightened Def Con from 8.72589e-005 to 8.72589e-005
Heightened Def Con from 8.72589e-005 to 8.72589e-005
Heightened Def Con from 8.72589e-005 to 8.72589e-005
Heightened Def Con from 8.72589e-005 to 8.72589e-005
Heightened Def Con from 8.72589e-005 to 8.72589e-005
Heightened Def Con from 8.72589e-005 to 8.72589e-005
Heightened Def Con from 8.7259e-005 to 8.72602e-005
Heightened Def Con from 8.72604e-005 to 8.72605e-005
Heightened Def Con from 8.72606e-005 to 8.72606e-005
Heightened Def Con from 8.72606e-005 to 8.72606e-005
Heightened Def Con from 8.72606e-005 to 8.72606e-005
Heightened Def Con from 8.72606e-005 to 8.72606e-005
Heightened Def Con from 8.72606e-005 to 8.72606e-005
Heightened Def Con from 8.72607e-005 to 8.72617e-005
Heightened Def Con from 8.72617e-005 to 8.72617e-005
Heightened Def Con from 8.72617e-005 to 8.72618e-005
Heightened Def Con from 8.72618e-005 to 8.72618e-005
Heightened Def Con from 8.72618e-005 to 8.72618e-005
Heightened Def Con from 8.72618e-005 to 8.72618e-005
Heightened Def Con from 8.72618e-005 to 8.72618e-005
Heightened Def Con from 8.72618e-005 to 8.72618e-005
Heightened Def Con from 8.72618e-005 to 8.72618e-005
Heightened Def Con from 8.72618e-005 to 8.72618e-005
Heightened Def Con from 8.72618e-005 to 8.72618e-005
Heightened Def Con from 8.72618e-005 to 8.72618e-005
Heightened Def Con from 8.72618e-005 to 8.72618e-005
Heightened Def Con from 8.72618e-005 to 8.72618e-005
Heightened Def Con from 8.72618e-005 to 8.72618e-005
Heightened Def Con from 8.72618e-005 to 8.72618e-005
Heightened Def Con from 8.72618e-005 to 8.72618e-005
Heightened Def Con from 8.72619e-005 to 8.72619e-005
Heightened Def Con from 8.72619e-005 to 8.72619e-005
Heightened Def Con from 8.72619e-005 to 8.72619e-005
Heightened Def Con from 8.72619e-005 to 8.72619e-005
Heightened Def Con from 8.72619e-005 to 8.72619e-005
Heightened Def Con from 8.72619e-005 to 8.72619e-005
Heightened Def Con from 8.72619e-005 to 8.72619e-005
Heightened Def Con from 8.72619e-005 to 8.72619e-005
Heightened Def Con from 8.72619e-005 to 8.72619e-005
Heightened Def Con from 8.72619e-005 to 8.72619e-005
Heightened Def Con from 8.72619e-005 to 8.72619e-005
Heightened Def Con from 8.72619e-005 to 8.72619e-005
Heightened Def Con from 8.72619e-005 to 8.72619e-005
Heightened Def Con from 8.72619e-005 to 8.72619e-005
Heightened Def Con from 8.72619e-005 to 8.72619e-005
Heightened Def Con from 8.72619e-005 to 8.72619e-005
Heightened Def Con from 8.72619e-005 to 8.72619e-005
Heightened Def Con from 8.72619e-005 to 8.72619e-005
Heightened Def Con from 8.72619e-005 to 8.72619e-005
Heightened Def Con from 8.72619e-005 to 8.72619e-005
Heightened Def Con from 8.72619e-005 to 8.72619e-005
Heightened Def Con from 8.72619e-005 to 8.72619e-005
Heightened Def Con from 8.72619e-005 to 8.72619e-005
Heightened Def Con from 8.72619e-005 to 8.72619e-005
Heightened Def Con from 8.72619e-005 to 8.72619e-005
Heightened Def Con from 8.72619e-005 to 8.72619e-005
Heightened Def Con from 8.72619e-005 to 8.72619e-005
Heightened Def Con from 8.72619e-005 to 8.72619e-005
Heightened Def Con from 8.72619e-005 to 8.72619e-005
Heightened Def Con from 8.72619e-005 to 8.72619e-005
Heightened Def Con from 8.72619e-005 to 8.72619e-005
Heightened Def Con from 8.72619e-005 to 8.72619e-005
Heightened Def Con from 8.72619e-005 to 8.72619e-005
Heightened Def Con from 8.72619e-005 to 8.72619e-005
Heightened Def Con from 8.72619e-005 to 8.72619e-005
Heightened Def Con from 8.72619e-005 to 8.72619e-005
Heightened Def Con from 8.72619e-005 to 8.72619e-005
Heightened Def Con from 8.72619e-005 to 8.72629e-005
Heightened Def Con from 8.72629e-005 to 8.72629e-005
Heightened Def Con from 8.72629e-005 to 8.72629e-005
Heightened Def Con from 8.72629e-005 to 8.72629e-005
Heightened Def Con from 8.72629e-005 to 8.72629e-005
Heightened Def Con from 8.72629e-005 to 8.72629e-005
Heightened Def Con from 8.72629e-005 to 8.72629e-005
Heightened Def Con from 8.72629e-005 to 8.72629e-005
Heightened Def Con from 8.72629e-005 to 8.72629e-005
Heightened Def Con from 8.72629e-005 to 8.72629e-005
Heightened Def Con from 8.72629e-005 to 8.72629e-005
Heightened Def Con from 8.72629e-005 to 8.72629e-005
Heightened Def Con from 8.72629e-005 to 8.72629e-005
Heightened Def Con from 8.72629e-005 to 8.72629e-005
Heightened Def Con from 8.72629e-005 to 8.72629e-005
Heightened Def Con from 8.72629e-005 to 8.72629e-005
Heightened Def Con from 8.7263e-005 to 8.7263e-005
Heightened Def Con from 8.7263e-005 to 8.7263e-005
Heightened Def Con from 8.7263e-005 to 8.7263e-005
Heightened Def Con from 8.7263e-005 to 8.7263e-005
Heightened Def Con from 8.7263e-005 to 8.7263e-005
Heightened Def Con from 8.7263e-005 to 8.72641e-005
Heightened Def Con from 8.72641e-005 to 8.72641e-005
Heightened Def Con from 8.72641e-005 to 8.72641e-005
Heightened Def Con from 8.72641e-005 to 8.72641e-005
Heightened Def Con from 8.72641e-005 to 8.72641e-005
Heightened Def Con from 8.72641e-005 to 8.72641e-005
Heightened Def Con from 8.72641e-005 to 8.72641e-005
Heightened Def Con from 8.72641e-005 to 8.72641e-005
Heightened Def Con from 8.72641e-005 to 8.72641e-005
Heightened Def Con from 8.72641e-005 to 8.72641e-005
Heightened Def Con from 8.72641e-005 to 8.72641e-005
Heightened Def Con from 8.72641e-005 to 8.72641e-005
Heightened Def Con from 8.72641e-005 to 8.72641e-005
Heightened Def Con from 8.72641e-005 to 8.72641e-005
Heightened Def Con from 8.72641e-005 to 8.72641e-005
Heightened Def Con from 8.72641e-005 to 8.72641e-005
Heightened Def Con from 8.72641e-005 to 8.72641e-005
Heightened Def Con from 8.72641e-005 to 8.72641e-005
Heightened Def Con from 8.72641e-005 +to 8.72641e-005
Heightened Def Con from 8.72641e-005 to 8.72641e-005
Heightened Def Con from 8.72641e-005 to 8.72641e-005
Heightened Def Con from 8.72641e-005 to 8.72641e-005
Heightened Def Con from 8.72641e-005 +to 8.72641e-005
Heightened Def Con from 8.72641e-005 to 8.72641e-005
Heightened Def Con from 8.72641e-005 to 8.72641e-005
Heightened Def Con from 8.72641e-005 to 8.72641e-005
Heightened Def Con from 8.72641e-005 to 8.72641e-005
Heightened Def Con from 8.72641e-005 to 8.72641e-005
Heightened Def Con from 8.72641e-005 to 8.72641e-005
Heightened Def Con from 8.72641e-005 to 8.72641e-005
Heightened Def Con from 8.72641e-005 to 8.72641e-005
Heightened Def Con from 8.72641e-005 to 8.72641e-005
Heightened Def Con from 8.72641e-005 to 8.72641e-005
Heightened Def Con from 8.72641e-005 to 8.72641e-005
Heightened Def Con from 8.72641e-005 ++to 8.72641e-005
Heightened Def Con from 8.72641e-005 to 8.72641e-005
Heightened Def Con from 8.72641e-005 to 8.72641e-005
Heightened Def Con from 8.72641e-005 to 8.72641e-005
Heightened Def Con from 8.72641e-005 to 8.72641e-005
Heightened Def Con from 8.72641e-005 to 8.72641e-005
Heightened Def Con from 8.72641e-005 to 8.72641e-005
Heightened Def Con from 8.72641e-005 to 8.72641e-005
Heightened Def Con from 8.72641e-005 to 8.72641e-005
Heightened Def Con from 8.72641e-005 to 8.72641e-005
Heightened Def Con from 8.72641e-005 to 8.72641e-005
Heightened Def Con from 8.72641e-005 to 8.72641e-005
Heightened Def Con from 8.72641e-005 to 8.72641e-005
Heightened Def Con from 8.72641e-005 to 8.72641e-005
Heightened Def Con from 8.72641e-005 to 8.72641e-005
Heightened Def Con from 8.72641e-005 to 8.72641e-005
Heightened Def Con from 8.72641e-005 to 8.72641e-005
Heightened Def Con from 8.72641e-005 to 8.72641e-005
Heightened Def Con from 8.72641e-005 to 8.72641e-005
Heightened Def Con from 8.72641e-005 to 8.72641e-005
Heightened Def Con from 8.72641e-005 to 8.72641e-005
Heightened Def Con from 8.72641e-005 to 8.72641e-005
Heightened Def Con from 8.72641e-005 to 8.72641e-005
Heightened Def Con from 8.72641e-005 to 8.72641e-005
Heightened Def Con from 8.72641e-005 to 8.72641e-005
Heightened Def Con from 8.72641e-005 to 8.72641e-005
Heightened Def Con from 8.72641e-005 to 8.72641e-005
Heightened Def Con from 8.72641e-005 to 8.72641e-005
Heightened Def Con from 8.72641e-005 to 8.72641e-005
Heightened Def Con from 8.72641e-005 to 8.72641e-005
Heightened Def Con from 8.72641e-005 to 8.72641e-005
Heightened Def Con from 8.72641e-005 to 8.72641e-005
Heightened Def Con from 8.72641e-005 to 8.72641e-005
Heightened Def Con from 8.72641e-005 to 8.72641e-005
Heightened Def Con from 8.72641e-005 to 8.72641e-005
Heightened Def Con from 8.72641e-005 to 8.72641e-005
Heightened Def Con from 8.72641e-005 to 8.72641e-005
Heightened Def Con from 8.72641e-005 to 8.72641e-005
Heightened Def Con from 8.72641e-005 to 8.72641e-005
Heightened Def Con from 8.72641e-005 to 8.72641e-005
Heightened Def Con from 8.72641e-005 to 8.72641e-005
Heightened Def Con from 8.72641e-005 to 8.72641e-005
Heightened Def Con from 8.72641e-005 to 8.72641e-005
Heightened Def Con from 8.72641e-005 to 8.72641e-005
Heightened Def Con from 8.72641e-005 to 8.72641e-005
Heightened Def Con from 8.72641e-005 to 8.72641e-005
Heightened Def Con from 8.72641e-005 to 8.72641e-005
Heightened Def Con from 8.72641e-005 to 8.72641e-005
Heightened Def Con from 8.72641e-005 to 8.72641e-005
Heightened Def Con from 8.72641e-005 to 8.72641e-005
Heightened Def Con from 8.72641e-005 to 8.72641e-005
Heightened Def Con from 8.72641e-005 to 8.72641e-005
Heightened Def Con from 8.72641e-005 to 8.72641e-005
Heightened Def Con from 8.72641e-005 to 8.72641e-005
Heightened Def Con from 8.72641e-005 to 8.72641e-005
Heightened Def Con from 8.72641e-005 to 8.72641e-005
Heightened Def Con from 8.72641e-005 to 8.72641e-005
Heightened Def Con from 8.72641e-005 to 8.72641e-005
Heightened Def Con from 8.72641e-005 to 8.72641e-005
Heightened Def Con from 8.72641e-005 to 8.72641e-005
Heightened Def Con from 8.72641e-005 to 8.72641e-005
Heightened Def Con from 8.72641e-005 to 8.72641e-005
Heightened Def Con from 8.72641e-005 to 8.72641e-005
Heightened Def Con from 8.72641e-005 to 8.72641e-005
Heightened Def Con from 8.72641e-005 to 8.72641e-005
Heightened Def Con from 8.72641e-005 to 8.72641e-005
Heightened Def Con from 8.72641e-005 to 8.72641e-005
Heightened Def Con from 8.72641e-005 to 8.72641e-005
Heightened Def Con from 8.72641e-005 to 8.72641e-005
Heightened Def Con from 8.72641e-005 to 8.72642e-005
Heightened Def Con from 8.72642e-005 to 8.72642e-005
Heightened Def Con from 8.72642e-005 to 8.72642e-005
Heightened Def Con from 8.72642e-005 to 8.72642e-005
Heightened Def Con from 8.72642e-005 to 8.72642e-005
Heightened Def Con from 8.72642e-005 to 8.72642e-005
Heightened Def Con from 8.72642e-005 to 8.72642e-005
Heightened Def Con from 8.72642e-005 to 8.72642e-005
Heightened Def Con from 8.72642e-005 to 8.72642e-005
Heightened Def Con from 8.72642e-005 to 8.72642e-005
Heightened Def Con from 8.72642e-005 to 8.72642e-005
Heightened Def Con from 8.72642e-005 to 8.72642e-005
Heightened Def Con from 8.72642e-005 to 8.72642e-005
Heightened Def Con from 8.72642e-005 to 8.72642e-005
Heightened Def Con from 8.72642e-005 to 8.72642e-005
Heightened Def Con from 8.72642e-005 to 8.72642e-005
Heightened Def Con from 8.72642e-005 to 8.72642e-005
Heightened Def Con from 8.72642e-005 to 8.72642e-005
Heightened Def Con from 8.72642e-005 to 8.72642e-005
Heightened Def Con from 8.72642e-005 to 8.72642e-005
Heightened Def Con from 8.72642e-005 to 8.72642e-005
Heightened Def Con from 8.72642e-005 to 8.72642e-005
Heightened Def Con from 8.72642e-005 to 8.72642e-005
Heightened Def Con from 8.72642e-005 to 8.72642e-005
Heightened Def Con from 8.72642e-005 to 8.72642e-005
Heightened Def Con from 8.72642e-005 to 8.72642e-005
Heightened Def Con from 8.72642e-005 to 8.72642e-005
Heightened Def Con from 8.72642e-005 to 8.72642e-005
Heightened Def Con from 8.72642e-005 to 8.72642e-005
Heightened Def Con from 8.72642e-005 to 8.72642e-005
Heightened Def Con from 8.72642e-005 to 8.72642e-005
Heightened Def Con from 8.72642e-005 to 8.72642e-005
Heightened Def Con from 8.72642e-005 to 8.72642e-005
Heightened Def Con from 8.72642e-005 to 8.72642e-005
Heightened Def Con from 8.72642e-005 to 8.72642e-005
Heightened Def Con from 8.72642e-005 to 8.72642e-005
Heightened Def Con from 8.72642e-005 to 8.72642e-005
Heightened Def Con from 8.72642e-005 to 8.72642e-005
Heightened Def Con from 8.72642e-005 to 8.72642e-005
Heightened Def Con from 8.72642e-005 to 8.72642e-005
Heightened Def Con from 8.72642e-005 to 8.72642e-005
Heightened Def Con from 8.72642e-005 to 8.72642e-005
Heightened Def Con from 8.72642e-005 to 8.72642e-005
Heightened Def Con from 8.72642e-005 to 8.72642e-005
Heightened Def Con from 8.72642e-005 to 8.72642e-005
Heightened Def Con from 8.72642e-005 ++to 8.72642e-005
Heightened Def Con from 8.72642e-005 to 8.72642e-005
Heightened Def Con from 8.72642e-005 to 8.72642e-005
Heightened Def Con from 8.72642e-005 to 8.72642e-005
Heightened Def Con from 8.72642e-005 to 8.72642e-005
Heightened Def Con from 8.72642e-005 to 8.72642e-005
Heightened Def Con from 8.72642e-005 to 8.72642e-005
Heightened Def Con from 8.72642e-005 to 8.72642e-005
Heightened Def Con from 8.72642e-005 to 8.72642e-005
Heightened Def Con from 8.72642e-005 to 8.72642e-005
Heightened Def Con from 8.72642e-005 to 8.72642e-005
Heightened Def Con from 8.72642e-005 to 8.72652e-005
Heightened Def Con from 8.72652e-005 to 8.72652e-005
Heightened Def Con from 8.72652e-005 to 8.72652e-005
Heightened Def Con from 8.72652e-005 to 8.72652e-005
Heightened Def Con from 8.72652e-005 to 8.72652e-005
Heightened Def Con from 8.72652e-005 to 8.72652e-005
Heightened Def Con from 8.72652e-005 to 8.72652e-005
Heightened Def Con from 8.72652e-005 to 8.72652e-005
Heightened Def Con from 8.72652e-005 to 8.72652e-005
Heightened Def Con from 8.72652e-005 to 8.72652e-005
Heightened Def Con from 8.72652e-005 to 8.72652e-005
Heightened Def Con from 8.72652e-005 to 8.72652e-005
Heightened Def Con from 8.72652e-005 to 8.72652e-005
Heightened Def Con from 8.72652e-005 to 8.72662e-005
Heightened Def Con from 8.72662e-005 to 8.72662e-005
Heightened Def Con from 8.72662e-005 to 8.72662e-005
Heightened Def Con from 8.72662e-005 to 8.72662e-005
Heightened Def Con from 8.72662e-005 to 8.72662e-005
Heightened Def Con from 8.72662e-005 to 8.72662e-005
Heightened Def Con from 8.72662e-005 to 8.72662e-005
Heightened Def Con from 8.72662e-005 to 8.72662e-005
Heightened Def Con from 8.72662e-005 +to 8.72662e-005
Heightened Def Con from 8.72662e-005 to 8.72662e-005
Heightened Def Con from 8.72662e-005 to 8.72662e-005
Heightened Def Con from 8.72662e-005 to 8.72662e-005
Heightened Def Con from 8.72662e-005 to 8.72662e-005
Heightened Def Con from 8.72662e-005 to 8.72662e-005
Heightened Def Con from 8.72662e-005 to 8.72662e-005
Heightened Def Con from 8.72662e-005 to 8.72662e-005
Heightened Def Con from 8.72662e-005 to 8.72662e-005
Heightened Def Con from 8.72662e-005 +to 8.72662e-005
Heightened Def Con from 8.72662e-005 to 8.72662e-005
Heightened Def Con from 8.72662e-005 to 8.72662e-005
Heightened Def Con from 8.72662e-005 to 8.72662e-005
Heightened Def Con from 8.72662e-005 to 8.72662e-005
Heightened Def Con from 8.72662e-005 to 8.72662e-005
Heightened Def Con from 8.72662e-005 to 8.72662e-005
Heightened Def Con from 8.72662e-005 to 8.72664e-005
Heightened Def Con from 8.72664e-005 to 8.72664e-005
Heightened Def Con from 8.72664e-005 to 8.72664e-005
Heightened Def Con from 8.72664e-005 to 8.72664e-005
Heightened Def Con from 8.72664e-005 to 8.72664e-005
Heightened Def Con from 8.72664e-005 to 8.72664e-005
Heightened Def Con from 8.72664e-005 to 8.72664e-005
Heightened Def Con from 8.72664e-005 to 8.72664e-005
Heightened Def Con from 8.72664e-005 to 8.72664e-005
Heightened Def Con from 8.72664e-005 to 8.72664e-005
Heightened Def Con from 8.72664e-005 to 8.72664e-005
Heightened Def Con from 8.72664e-005 to 8.72664e-005
Heightened Def Con from 8.72664e-005 to 8.72664e-005
Heightened Def Con from 8.72664e-005 to 8.72664e-005
Heightened Def Con from 8.72664e-005 to 8.72664e-005
Heightened Def Con from 8.72664e-005 to 8.72664e-005
Heightened Def Con from 8.72664e-005 to 8.72664e-005
Heightened Def Con from 8.72664e-005 to 8.72664e-005
Heightened Def Con from 8.72664e-005 to 8.72664e-005
Heightened Def Con from 8.72664e-005 to 8.72664e-005
Heightened Def Con from 8.72664e-005 to 8.72664e-005
Heightened Def Con from 8.72664e-005 to 8.72664e-005
Heightened Def Con from 8.72664e-005 to 8.72664e-005
Heightened Def Con from 8.72664e-005 to 8.72664e-005
Heightened Def Con from 8.72664e-005 to 8.72664e-005
Heightened Def Con from 8.72664e-005 to 8.72664e-005
Heightened Def Con from 8.72664e-005 to 8.72664e-005
Heightened Def Con from 8.72664e-005 to 8.72664e-005
Heightened Def Con from 8.72664e-005 to 8.72664e-005
Heightened Def Con from 8.72664e-005 to 8.72664e-005
Heightened Def Con from 8.72664e-005 to 8.72664e-005
Heightened Def Con from 8.72664e-005 to 8.72664e-005
Heightened Def Con from 8.72664e-005 to 8.72664e-005
Heightened Def Con from 8.72664e-005 to 8.72664e-005
Heightened Def Con from 8.72664e-005 to 8.72664e-005
Heightened Def Con from 8.72664e-005 to 8.72664e-005
Heightened Def Con from 8.72664e-005 to 8.72664e-005
Heightened Def Con from 8.72664e-005 to 8.72664e-005
Heightened Def Con from 8.72664e-005 to 8.72664e-005
Heightened Def Con from 8.72664e-005 to 8.72664e-005
Heightened Def Con from 8.72664e-005 to 8.72664e-005
Heightened Def Con from 8.72664e-005 to 8.72664e-005
Heightened Def Con from 8.72664e-005 to 8.72664e-005
Heightened Def Con from 8.72664e-005 to 8.72664e-005
Heightened Def Con from 8.72664e-005 to 8.72664e-005
Heightened Def Con from 8.72664e-005 to 8.72674e-005
Heightened Def Con from 8.72674e-005 to 8.72674e-005
Heightened Def Con from 8.72674e-005 to 8.72674e-005
Heightened Def Con from 8.72674e-005 to 8.72674e-005
Heightened Def Con from 8.72674e-005 to 8.72674e-005
Heightened Def Con from 8.72674e-005 to 8.72674e-005
Heightened Def Con from 8.72674e-005 to 8.72674e-005
Heightened Def Con from 8.72674e-005 to 8.72675e-005
Heightened Def Con from 8.72675e-005 to 8.72675e-005
Heightened Def Con from 8.72675e-005 to 8.72675e-005
Heightened Def Con from 8.72675e-005 to 8.72685e-005
Heightened Def Con from 8.72686e-005 to 8.72686e-005
Heightened Def Con from 8.72686e-005 to 8.72686e-005
Heightened Def Con from 8.72687e-005 to 8.72687e-005
Heightened Def Con from 8.72687e-005 to 8.72687e-005
Heightened Def Con from 8.72687e-005 to 8.72687e-005
Heightened Def Con from 8.72688e-005 to 8.72688e-005
Heightened Def Con from 8.72688e-005 to 8.72688e-005
Heightened Def Con from 8.72688e-005 to 8.72698e-005
Heightened Def Con from 8.72698e-005 to 8.72698e-005
Heightened Def Con from 8.72699e-005 to 8.72701e-005
Heightened Def Con from 8.72701e-005 to 8.72713e-005
Heightened Def Con from 8.72715e-005 to 8.72716e-005
Heightened Def Con from 8.72717e-005 to 8.72717e-005
Heightened Def Con from 8.72719e-005 to 8.72719e-005
Heightened Def Con from 8.72719e-005 to 8.72719e-005
Heightened Def Con from 8.72719e-005 to 8.72719e-005
Heightened Def Con from 8.7272e-005 to 8.7272e-005
Heightened Def Con from 8.72722e-005 to 8.72723e-005
Heightened Def Con from 8.72724e-005 to 8.72724e-005

Date: Tue May 30 17:16:09 2023
Total elapsed time: 17.093 seconds.

tnom = 27
temp = 27
method = modified trap
totiter = 3481500
traniter = 3474950
tranpoints = 510517
accept = 333972
rejected = 183021
matrix size = 35
fillins = 9
solver = Normal
Matrix Compiler1: 2.35 KB object code size  1.0/0.7/[0.4]
Matrix Compiler2: off  [0.4]/0.6/0.5

