Circuit: * C:\users\leonardo\Desktop\FSAE\inverter-simulation\main-attempt\inverter-spice-nmos.asc

WARNING: Node N014 is floating.

Instance "m1": Length shorter than recommended for a level 1 MOSFET.
Direct Newton iteration for .op point succeeded.
Heightened Def Con from 1.0618e-007 to 1.1118e-007
Heightened Def Con from 1.64777e-007 to 1.05378e-006
Heightened Def Con from 1.14262e-006 to 1.15062e-006

Date: Sat May 20 11:00:57 2023
Total elapsed time: 50.199 seconds.

tnom = 27
temp = 27
method = modified trap
totiter = 14531020
traniter = 14530995
tranpoints = 6065819
accept = 3844024
rejected = 2221798
matrix size = 20
fillins = 17
solver = Normal
Matrix Compiler1: 1.64 KB object code size  0.7/0.5/[0.3]
Matrix Compiler2: 1.71 KB object code size  0.4/0.6/[0.3]

