Circuit: * C:\users\leonardo\Desktop\FSAE\inverter-simulation\main-attempt\inverter-spice-nmos.asc

WARNING: Node N014 is floating.

Instance "m1": Length shorter than recommended for a level 1 MOSFET.
Direct Newton iteration for .op point succeeded.

Date: Thu May 25 14:49:08 2023
Total elapsed time: 0.080 seconds.

tnom = 27
temp = 27
method = modified trap
totiter = 3957
traniter = 3932
tranpoints = 1946
accept = 1349
rejected = 597
matrix size = 19
fillins = 1
solver = Normal
Matrix Compiler1: 930 bytes object code size  0.5/0.3/[0.3]
Matrix Compiler2: off  [0.3]/0.3/0.4

