Circuit: * C:\users\leonardo\Desktop\FSAE\inverter-simulation\main-attempt\inverter-spice-nmos.asc

WARNING: Node N014 is floating.

Instance "m1": Length shorter than recommended for a level 1 MOSFET.
Direct Newton iteration for .op point succeeded.
Heightened Def Con from 2.03916e-007 to 2.11916e-007
Heightened Def Con from 2.17811e-007 to 2.24811e-007
Heightened Def Con from 2.30267e-007 to 2.42267e-007
Heightened Def Con from 2.43173e-007 to 2.43173e-007

Date: Wed May 24 14:52:02 2023
Total elapsed time: 35.996 seconds.

tnom = 27
temp = 27
method = modified trap
totiter = 10210586
traniter = 10210561
tranpoints = 4637307
accept = 2882650
rejected = 1754661
matrix size = 20
fillins = 19
solver = Normal
Matrix Compiler1: 1.72 KB object code size  0.7/0.5/[0.3]
Matrix Compiler2: 1.75 KB object code size  0.4/0.6/[0.3]

