Circuit: * C:\users\leonardo\Desktop\FSAE\inverter-simulation\main-attempt\inverter-spice.asc

Limiting rise time of source v2 to 6.25e-006
Limiting fall time of source v2 to 6.25e-006
Direct Newton iteration failed to find .op point.  (Use ".option noopiter" to skip.)
Starting Gmin stepping
Gmin = 10
Gmin = 1.07374
Gmin = 0.115292
Gmin = 0.0123794
Gmin = 0.00132923
Gmin = 0.000142725
Gmin = 1.5325e-005
Gmin = 1.6455e-006
Gmin = 1.76685e-007
Gmin = 1.89714e-008
vernier = 0.5
Gmin = 3.18287e-009
vernier = 0.666667
vernier = 0.333333
vernier = 0.166667
Gmin = 1.45338e-009
vernier = 0.0833333
vernier = 0.0416667
vernier = 0.0208333
Gmin = 1.2792e-009
vernier = 0.0104167
vernier = 0.00520833
vernier = 0.00260417
vernier = 0.00130208
vernier = 0.000651042
Gmin = 1.28502e-009
vernier = 0.000868055
vernier = 0.000434028
Gmin = 0
Gmin stepping succeeded in finding the operating point.

Changing Tseed to 1e-010
Changing Tseed to 1e-012
Changing Tseed to 1e-009
Changing Tseed to 1e-013
Changing Tseed to 1e-008
Changing Tseed to 1e-014
Changing Tseed to 1e-007
Changing Tseed to 1e-015
Changing Tseed to 1e-006
Heightened Def Con from 1.00407e-006 to 1.00407e-006
Heightened Def Con from 1.00407e-006 to 1.00507e-006
Heightened Def Con from 1.00507e-006 to 1.00532e-006
Heightened Def Con from 1.00532e-006 to 1.00532e-006
Heightened Def Con from 1.00532e-006 to 1.00532e-006
Heightened Def Con from 1.00532e-006 to 1.00532e-006
Heightened Def Con from 1.00532e-006 to 1.00632e-006
Heightened Def Con from 1.00632e-006 to 1.00632e-006
Heightened Def Con from 1.00632e-006 to 1.00633e-006
Heightened Def Con from 1.00633e-006 to 1.00633e-006
Heightened Def Con from 1.00633e-006 to 1.00633e-006
Heightened Def Con from 1.00633e-006 to 1.00633e-006
Heightened Def Con from 1.00633e-006 to 1.00633e-006
Heightened Def Con from 1.00633e-006 +to 1.00734e-006
Heightened Def Con from 1.00734e-006 to 1.00747e-006
Heightened Def Con from 1.00747e-006 to 1.00747e-006
Heightened Def Con from 1.00747e-006 to 1.00747e-006
Heightened Def Con from 1.00747e-006 to 1.00749e-006
Heightened Def Con from 1.00749e-006 to 1.00749e-006
Heightened Def Con from 1.00749e-006 to 1.00749e-006
Heightened Def Con from 1.00749e-006 to 1.00749e-006
Heightened Def Con from 1.00749e-006 to 1.00749e-006
Heightened Def Con from 1.00749e-006 to 1.00749e-006
Heightened Def Con from 1.00749e-006 to 1.00749e-006
Heightened Def Con from 1.00749e-006 to 1.0075e-006
Heightened Def Con from 1.0075e-006 to 1.0075e-006
Heightened Def Con from 1.0075e-006 to 1.0085e-006
Heightened Def Con from 1.0085e-006 to 1.0085e-006
Heightened Def Con from 1.0085e-006 to 1.0085e-006
Heightened Def Con from 1.0085e-006 to 1.0085e-006
Heightened Def Con from 1.0085e-006 to 1.0085e-006
Heightened Def Con from 1.0085e-006 to 1.0085e-006
Heightened Def Con from 1.0085e-006 to 1.00852e-006
Heightened Def Con from 1.00852e-006 to 1.00854e-006
Heightened Def Con from 1.00854e-006 to 1.00855e-006
Heightened Def Con from 1.00855e-006 to 1.00855e-006
Heightened Def Con from 1.00855e-006 to 1.00855e-006
Heightened Def Con from 1.00855e-006 to 1.00856e-006
Heightened Def Con from 1.00856e-006 to 1.00856e-006
Heightened Def Con from 1.00856e-006 to 1.00857e-006
Heightened Def Con from 1.00857e-006 to 1.00859e-006
Heightened Def Con from 1.00859e-006 to 1.00871e-006
Heightened Def Con from 1.00871e-006 to 1.00871e-006
Heightened Def Con from 1.00871e-006 to 1.00871e-006
Heightened Def Con from 1.00871e-006 to 1.00871e-006
Heightened Def Con from 1.00871e-006 to 1.00871e-006
Heightened Def Con from 1.00871e-006 to 1.00871e-006
Heightened Def Con from 1.00871e-006 to 1.00871e-006
Heightened Def Con from 1.00871e-006 to 1.00871e-006
Heightened Def Con from 1.00871e-006 to 1.00871e-006
Heightened Def Con from 1.00871e-006 to 1.00971e-006
Heightened Def Con from 1.00971e-006 to 1.00971e-006
Heightened Def Con from 1.00971e-006 to 1.00971e-006
Heightened Def Con from 1.00971e-006 to 1.00971e-006
Heightened Def Con from 1.00971e-006 to 1.00971e-006
Heightened Def Con from 1.00971e-006 to 1.00971e-006
Heightened Def Con from 1.00971e-006 to 1.00972e-006
Heightened Def Con from 1.00972e-006 to 1.00973e-006
Heightened Def Con from 1.00973e-006 to 1.00973e-006
Heightened Def Con from 1.00973e-006 to 1.00973e-006
Heightened Def Con from 1.00973e-006 to 1.00973e-006
Heightened Def Con from 1.00973e-006 to 1.01086e-006
Heightened Def Con from 1.01086e-006 to 1.01086e-006
Heightened Def Con from 1.01086e-006 to 1.01086e-006
Heightened Def Con from 1.01086e-006 to 1.01086e-006
Heightened Def Con from 1.01086e-006 to 1.01098e-006
Heightened Def Con from 1.01098e-006 +to 1.011e-006
Heightened Def Con from 1.011e-006 to 1.011e-006
Heightened Def Con from 1.011e-006 to 1.011e-006
Heightened Def Con from 1.011e-006 to 1.011e-006
Heightened Def Con from 1.011e-006 to 1.01102e-006
Heightened Def Con from 1.01102e-006 to 1.01102e-006
Heightened Def Con from 1.01102e-006 to 1.01102e-006
Heightened Def Con from 1.01102e-006 to 1.01103e-006
Heightened Def Con from 1.01103e-006 to 1.01103e-006
Heightened Def Con from 1.01103e-006 to 1.01103e-006
Heightened Def Con from 1.01103e-006 to 1.01103e-006
Heightened Def Con from 1.01103e-006 to 1.01103e-006
Heightened Def Con from 1.01103e-006 to 1.01103e-006
Heightened Def Con from 1.01103e-006 to 1.01103e-006
Heightened Def Con from 1.01103e-006 to 1.01103e-006
Heightened Def Con from 1.01103e-006 to 1.01103e-006
Heightened Def Con from 1.01103e-006 +to 1.01103e-006
Heightened Def Con from 1.01103e-006 to 1.01103e-006
Heightened Def Con from 1.01103e-006 to 1.01104e-006
Heightened Def Con from 1.01104e-006 to 1.01104e-006
Heightened Def Con from 1.01104e-006 to 1.01104e-006
Heightened Def Con from 1.01104e-006 to 1.01104e-006
Heightened Def Con from 1.01104e-006 to 1.01104e-006
Heightened Def Con from 1.01104e-006 to 1.01104e-006
Heightened Def Con from 1.01104e-006 to 1.01104e-006
Heightened Def Con from 1.01104e-006 +to 1.01104e-006
Heightened Def Con from 1.01104e-006 to 1.01104e-006
Heightened Def Con from 1.01104e-006 +to 1.01106e-006
Heightened Def Con from 1.01106e-006 to 1.01206e-006
Heightened Def Con from 1.01206e-006 to 1.01306e-006
Heightened Def Con from 1.01306e-006 to 1.01306e-006
Heightened Def Con from 1.01306e-006 to 1.01306e-006
Heightened Def Con from 1.01306e-006 to 1.01306e-006
Heightened Def Con from 1.01306e-006 to 1.01306e-006
Heightened Def Con from 1.01306e-006 to 1.01318e-006
Heightened Def Con from 1.01318e-006 to 1.01418e-006
Heightened Def Con from 1.01418e-006 to 1.01418e-006
Heightened Def Con from 1.01418e-006 to 1.01418e-006
Heightened Def Con from 1.01418e-006 to 1.0142e-006
Heightened Def Con from 1.0142e-006 to 1.01433e-006
Heightened Def Con from 1.01433e-006 to 1.01433e-006
Heightened Def Con from 1.01433e-006 to 1.01433e-006
Heightened Def Con from 1.01433e-006 to 1.01433e-006
Heightened Def Con from 1.01433e-006 +to 1.01434e-006
Heightened Def Con from 1.01434e-006 to 1.01434e-006
Heightened Def Con from 1.01434e-006 to 1.01434e-006
Heightened Def Con from 1.01434e-006 to 1.01435e-006
Heightened Def Con from 1.01435e-006 to 1.01436e-006
Heightened Def Con from 1.01436e-006 to 1.01436e-006
Heightened Def Con from 1.01436e-006 to 1.01436e-006
Heightened Def Con from 1.01436e-006 to 1.01436e-006
Heightened Def Con from 1.01436e-006 to 1.01436e-006
Heightened Def Con from 1.01436e-006 to 1.01437e-006
Heightened Def Con from 1.01437e-006 to 1.01437e-006
Heightened Def Con from 1.01437e-006 to 1.01437e-006
Heightened Def Con from 1.01437e-006 to 1.01438e-006
Heightened Def Con from 1.01438e-006 to 1.01438e-006
Heightened Def Con from 1.01438e-006 +to 1.01438e-006
Heightened Def Con from 1.01438e-006 to 1.01438e-006
Heightened Def Con from 1.01438e-006 to 1.01438e-006
Heightened Def Con from 1.01438e-006 to 1.01438e-006
Heightened Def Con from 1.01438e-006 to 1.01438e-006
Heightened Def Con from 1.01438e-006 to 1.01439e-006
Heightened Def Con from 1.01439e-006 to 1.01539e-006
Heightened Def Con from 1.01539e-006 to 1.01539e-006
Heightened Def Con from 1.01539e-006 to 1.01551e-006
Heightened Def Con from 1.01551e-006 to 1.01553e-006
Heightened Def Con from 1.01553e-006 to 1.01553e-006
Heightened Def Con from 1.01553e-006 to 1.01553e-006
Heightened Def Con from 1.01553e-006 to 1.01553e-006
Heightened Def Con from 1.01553e-006 to 1.01553e-006
Heightened Def Con from 1.01553e-006 to 1.01553e-006
Heightened Def Con from 1.01553e-006 to 1.01555e-006
Heightened Def Con from 1.01555e-006 to 1.01555e-006
Heightened Def Con from 1.01555e-006 to 1.01555e-006
Heightened Def Con from 1.01555e-006 to 1.01555e-006
Heightened Def Con from 1.01555e-006 to 1.0168e-006
Heightened Def Con from 1.0168e-006 to 1.0168e-006
Heightened Def Con from 1.0168e-006 to 1.0168e-006
Heightened Def Con from 1.0168e-006 to 1.0168e-006
Heightened Def Con from 1.0168e-006 to 1.0168e-006
Heightened Def Con from 1.0168e-006 to 1.0168e-006
Heightened Def Con from 1.0168e-006 to 1.0168e-006
Heightened Def Con from 1.0168e-006 to 1.01696e-006
Heightened Def Con from 1.01696e-006 to 1.01696e-006
Heightened Def Con from 1.01696e-006 to 1.01696e-006
Heightened Def Con from 1.01696e-006 to 1.01696e-006
Heightened Def Con from 1.01696e-006 to 1.01696e-006
Heightened Def Con from 1.01696e-006 to 1.01696e-006
Heightened Def Con from 1.01696e-006 to 1.01697e-006
Heightened Def Con from 1.01697e-006 to 1.0181e-006
Heightened Def Con from 1.0181e-006 to 1.0181e-006
Heightened Def Con from 1.0181e-006 to 1.0181e-006
Heightened Def Con from 1.0181e-006 to 1.01811e-006
Heightened Def Con from 1.01811e-006 to 1.01811e-006
Heightened Def Con from 1.01811e-006 to 1.01811e-006
Heightened Def Con from 1.01811e-006 to 1.01811e-006
Heightened Def Con from 1.01811e-006 to 1.01811e-006
Heightened Def Con from 1.01811e-006 to 1.01812e-006
Heightened Def Con from 1.01812e-006 to 1.01812e-006
Heightened Def Con from 1.01812e-006 to 1.01824e-006
Heightened Def Con from 1.01824e-006 to 1.01924e-006
Heightened Def Con from 1.01924e-006 to 1.01924e-006
Heightened Def Con from 1.01924e-006 to 1.01937e-006
Heightened Def Con from 1.01937e-006 to 1.01937e-006
Heightened Def Con from 1.01937e-006 to 1.01937e-006
Heightened Def Con from 1.01937e-006 to 1.01937e-006
Heightened Def Con from 1.01937e-006 to 1.01937e-006
Heightened Def Con from 1.01937e-006 to 1.01937e-006
Heightened Def Con from 1.01937e-006 to 1.01937e-006
Heightened Def Con from 1.01937e-006 to 1.01937e-006
Heightened Def Con from 1.01937e-006 to 1.01937e-006
Heightened Def Con from 1.01937e-006 to 1.01937e-006
Heightened Def Con from 1.01937e-006 to 1.01937e-006
Heightened Def Con from 1.01937e-006 to 1.01937e-006
Heightened Def Con from 1.01937e-006 to 1.01937e-006
Heightened Def Con from 1.01937e-006 to 1.01937e-006
Heightened Def Con from 1.01937e-006 to 1.01937e-006
Heightened Def Con from 1.01937e-006 to 1.01937e-006
Heightened Def Con from 1.01937e-006 to 1.01937e-006
Heightened Def Con from 1.01937e-006 to 1.01937e-006
Heightened Def Con from 1.01937e-006 to 1.01937e-006
Heightened Def Con from 1.01937e-006 to 1.01937e-006
Heightened Def Con from 1.01937e-006 to 1.0195e-006
Heightened Def Con from 1.0195e-006 to 1.01962e-006
Heightened Def Con from 1.01962e-006 to 1.01975e-006
Heightened Def Con from 1.01975e-006 to 1.01975e-006
Heightened Def Con from 1.01975e-006 to 1.01975e-006
Heightened Def Con from 1.01975e-006 to 1.01975e-006
Heightened Def Con from 1.01975e-006 to 1.01975e-006
Heightened Def Con from 1.01975e-006 to 1.01975e-006
Heightened Def Con from 1.01975e-006 to 1.01975e-006
Heightened Def Con from 1.01975e-006 to 1.01975e-006
Heightened Def Con from 1.01975e-006 to 1.01975e-006
Heightened Def Con from 1.01975e-006 to 1.01975e-006
Heightened Def Con from 1.01975e-006 to 1.01988e-006
Heightened Def Con from 1.01988e-006 to 1.01988e-006
Heightened Def Con from 1.01988e-006 to 1.02088e-006
Heightened Def Con from 1.02088e-006 to 1.02088e-006
Heightened Def Con from 1.02088e-006 to 1.02088e-006
Heightened Def Con from 1.02088e-006 to 1.02125e-006
Heightened Def Con from 1.02125e-006 to 1.02125e-006
Heightened Def Con from 1.02125e-006 to 1.02125e-006
Heightened Def Con from 1.02125e-006 to 1.02125e-006
Heightened Def Con from 1.02125e-006 to 1.02125e-006
Heightened Def Con from 1.02125e-006 to 1.02125e-006
Heightened Def Con from 1.02125e-006 to 1.02126e-006
Heightened Def Con from 1.02126e-006 to 1.02126e-006
Heightened Def Con from 1.02126e-006 to 1.02126e-006
Heightened Def Con from 1.02126e-006 to 1.02126e-006
Heightened Def Con from 1.02126e-006 to 1.02126e-006
Heightened Def Con from 1.02126e-006 to 1.02126e-006
Heightened Def Con from 1.02126e-006 to 1.02126e-006
Heightened Def Con from 1.02126e-006 to 1.02126e-006
Heightened Def Con from 1.02126e-006 to 1.02126e-006
Heightened Def Con from 1.02126e-006 to 1.02126e-006
Heightened Def Con from 1.02126e-006 +to 1.02126e-006
Heightened Def Con from 1.02126e-006 to 1.02126e-006
Heightened Def Con from 1.02126e-006 to 1.02126e-006
Heightened Def Con from 1.02126e-006 to 1.02126e-006
Heightened Def Con from 1.02126e-006 to 1.02126e-006
Heightened Def Con from 1.02126e-006 to 1.02126e-006
Heightened Def Con from 1.02126e-006 to 1.02126e-006
Heightened Def Con from 1.02126e-006 to 1.02126e-006
Heightened Def Con from 1.02126e-006 to 1.02126e-006
Heightened Def Con from 1.02126e-006 to 1.02126e-006
Heightened Def Con from 1.02126e-006 to 1.02127e-006
Heightened Def Con from 1.02127e-006 to 1.02127e-006
Heightened Def Con from 1.02127e-006 to 1.02127e-006
Heightened Def Con from 1.02127e-006 to 1.02127e-006
Heightened Def Con from 1.02127e-006 to 1.02127e-006
Heightened Def Con from 1.02127e-006 to 1.02127e-006
Heightened Def Con from 1.02127e-006 to 1.02127e-006
Heightened Def Con from 1.02127e-006 to 1.02127e-006
Heightened Def Con from 1.02127e-006 to 1.02127e-006
Heightened Def Con from 1.02127e-006 to 1.02127e-006
Heightened Def Con from 1.02127e-006 to 1.02127e-006
Heightened Def Con from 1.02127e-006 to 1.02127e-006
Heightened Def Con from 1.02127e-006 to 1.02127e-006
Heightened Def Con from 1.02127e-006 to 1.02127e-006
Heightened Def Con from 1.02127e-006 to 1.02127e-006
Heightened Def Con from 1.02127e-006 to 1.02127e-006
Heightened Def Con from 1.02127e-006 to 1.02127e-006
Heightened Def Con from 1.02127e-006 to 1.02127e-006
Heightened Def Con from 1.02127e-006 to 1.02127e-006
Heightened Def Con from 1.02127e-006 to 1.02127e-006
Heightened Def Con from 1.02127e-006 to 1.02127e-006
Heightened Def Con from 1.02127e-006 to 1.02127e-006
Heightened Def Con from 1.02127e-006 to 1.02127e-006
Heightened Def Con from 1.02127e-006 to 1.02127e-006
Heightened Def Con from 1.02127e-006 to 1.02127e-006
Heightened Def Con from 1.02127e-006 to 1.02127e-006
Heightened Def Con from 1.02127e-006 to 1.02141e-006
Heightened Def Con from 1.02141e-006 to 1.02141e-006
Heightened Def Con from 1.02141e-006 to 1.02141e-006
Heightened Def Con from 1.02141e-006 to 1.02141e-006
Heightened Def Con from 1.02141e-006 to 1.02143e-006
Heightened Def Con from 1.02143e-006 to 1.02143e-006
Heightened Def Con from 1.02143e-006 to 1.02156e-006
Heightened Def Con from 1.02156e-006 to 1.02156e-006
Heightened Def Con from 1.02156e-006 to 1.02156e-006
Heightened Def Con from 1.02156e-006 to 1.02156e-006
Heightened Def Con from 1.02156e-006 to 1.02168e-006
Heightened Def Con from 1.02168e-006 to 1.02168e-006
Heightened Def Con from 1.02168e-006 to 1.02168e-006
Heightened Def Con from 1.02168e-006 to 1.02168e-006
Heightened Def Con from 1.02168e-006 to 1.02181e-006
Heightened Def Con from 1.02181e-006 to 1.02181e-006
Heightened Def Con from 1.02181e-006 to 1.02181e-006
Heightened Def Con from 1.02181e-006 to 1.02281e-006
Heightened Def Con from 1.02281e-006 to 1.02281e-006
Heightened Def Con from 1.02281e-006 to 1.02281e-006
Heightened Def Con from 1.02281e-006 to 1.02281e-006
Heightened Def Con from 1.02281e-006 to 1.02281e-006
Heightened Def Con from 1.02281e-006 to 1.02281e-006
Heightened Def Con from 1.02281e-006 to 1.02281e-006
Heightened Def Con from 1.02281e-006 to 1.02281e-006
Heightened Def Con from 1.02281e-006 to 1.02281e-006
Heightened Def Con from 1.02281e-006 to 1.02281e-006
Heightened Def Con from 1.02281e-006 to 1.02281e-006
Heightened Def Con from 1.02281e-006 to 1.02281e-006
Heightened Def Con from 1.02281e-006 to 1.02281e-006
Heightened Def Con from 1.02281e-006 to 1.02381e-006
Heightened Def Con from 1.02381e-006 to 1.02381e-006
Heightened Def Con from 1.02381e-006 to 1.02381e-006
Heightened Def Con from 1.02381e-006 to 1.02381e-006
Heightened Def Con from 1.02381e-006 to 1.02381e-006
Heightened Def Con from 1.02381e-006 to 1.02381e-006
Heightened Def Con from 1.02381e-006 to 1.02406e-006
Heightened Def Con from 1.02406e-006 to 1.02406e-006
Heightened Def Con from 1.02407e-006 to 1.02407e-006
Heightened Def Con from 1.02407e-006 to 1.02407e-006
Heightened Def Con from 1.02407e-006 to 1.02407e-006
Heightened Def Con from 1.02407e-006 to 1.02408e-006
Heightened Def Con from 1.02408e-006 to 1.02408e-006
Heightened Def Con from 1.02408e-006 to 1.02408e-006
Heightened Def Con from 1.02408e-006 to 1.02408e-006
Heightened Def Con from 1.02408e-006 to 1.02408e-006
Heightened Def Con from 1.02408e-006 to 1.02408e-006
Heightened Def Con from 1.02408e-006 to 1.02408e-006
Heightened Def Con from 1.02408e-006 to 1.02408e-006
Heightened Def Con from 1.02408e-006 to 1.02408e-006
Heightened Def Con from 1.02408e-006 to 1.02408e-006
Heightened Def Con from 1.02408e-006 to 1.02408e-006
Heightened Def Con from 1.02408e-006 to 1.02408e-006
Heightened Def Con from 1.02408e-006 to 1.02408e-006
Heightened Def Con from 1.02408e-006 to 1.02408e-006
Heightened Def Con from 1.02408e-006 to 1.02508e-006
Heightened Def Con from 1.02508e-006 to 1.02608e-006
Heightened Def Con from 1.02608e-006 to 1.02608e-006
Heightened Def Con from 1.02608e-006 to 1.0261e-006
Heightened Def Con from 1.0261e-006 to 1.02611e-006
Heightened Def Con from 1.02611e-006 to 1.02711e-006
Heightened Def Con from 1.02711e-006 to 1.02711e-006
Heightened Def Con from 1.02711e-006 to 1.02711e-006
Heightened Def Con from 1.02711e-006 to 1.02711e-006
Heightened Def Con from 1.02711e-006 to 1.02711e-006
Heightened Def Con from 1.02711e-006 to 1.02711e-006
Heightened Def Con from 1.02711e-006 to 1.02711e-006
Heightened Def Con from 1.02711e-006 to 1.02711e-006
Heightened Def Con from 1.02711e-006 to 1.02712e-006
Heightened Def Con from 1.02712e-006 to 1.02712e-006
Heightened Def Con from 1.02712e-006 to 1.02712e-006
Heightened Def Con from 1.02712e-006 to 1.02712e-006
Heightened Def Con from 1.02712e-006 to 1.02712e-006
Heightened Def Con from 1.02712e-006 to 1.02713e-006
Heightened Def Con from 1.02713e-006 to 1.02713e-006
Heightened Def Con from 1.02713e-006 to 1.02728e-006
Heightened Def Con from 1.02728e-006 to 1.02728e-006
Heightened Def Con from 1.02728e-006 to 1.02728e-006
Heightened Def Con from 1.02728e-006 to 1.02728e-006
Heightened Def Con from 1.02728e-006 to 1.02728e-006
Heightened Def Con from 1.02728e-006 to 1.02728e-006
Heightened Def Con from 1.02728e-006 to 1.02728e-006
Heightened Def Con from 1.02728e-006 to 1.02753e-006
Heightened Def Con from 1.02753e-006 to 1.02753e-006
Heightened Def Con from 1.02753e-006 to 1.02753e-006
Heightened Def Con from 1.02753e-006 to 1.02753e-006
Heightened Def Con from 1.02753e-006 to 1.02753e-006
Heightened Def Con from 1.02753e-006 to 1.02754e-006
Heightened Def Con from 1.02754e-006 to 1.02755e-006
Heightened Def Con from 1.02755e-006 to 1.02755e-006
Heightened Def Con from 1.02755e-006 to 1.02755e-006
Heightened Def Con from 1.02755e-006 to 1.02755e-006
Heightened Def Con from 1.02755e-006 to 1.02755e-006
Heightened Def Con from 1.02755e-006 to 1.02755e-006
Heightened Def Con from 1.02755e-006 to 1.02755e-006
Heightened Def Con from 1.02755e-006 to 1.02755e-006
Heightened Def Con from 1.02755e-006 to 1.02755e-006
Heightened Def Con from 1.02755e-006 to 1.02755e-006
Heightened Def Con from 1.02755e-006 to 1.02757e-006
Heightened Def Con from 1.02757e-006 to 1.02757e-006
Heightened Def Con from 1.02757e-006 to 1.02757e-006
Heightened Def Con from 1.02757e-006 to 1.02757e-006
Heightened Def Con from 1.02757e-006 to 1.02757e-006
Heightened Def Con from 1.02757e-006 to 1.02857e-006
Heightened Def Con from 1.02857e-006 to 1.02857e-006
Heightened Def Con from 1.02857e-006 to 1.02857e-006
Heightened Def Con from 1.02857e-006 to 1.02857e-006
Heightened Def Con from 1.02857e-006 to 1.02857e-006
Heightened Def Con from 1.02857e-006 to 1.02857e-006
Heightened Def Con from 1.02857e-006 to 1.02857e-006
Heightened Def Con from 1.02857e-006 to 1.02857e-006
Heightened Def Con from 1.02857e-006 to 1.02857e-006
Heightened Def Con from 1.02857e-006 to 1.02857e-006
Heightened Def Con from 1.02857e-006 to 1.02857e-006
Heightened Def Con from 1.02857e-006 to 1.02857e-006
Heightened Def Con from 1.02857e-006 to 1.02857e-006
Heightened Def Con from 1.02857e-006 to 1.02857e-006
Heightened Def Con from 1.02857e-006 to 1.02857e-006
Heightened Def Con from 1.02857e-006 to 1.02857e-006
Heightened Def Con from 1.02857e-006 to 1.02857e-006
Heightened Def Con from 1.02857e-006 to 1.02857e-006
Heightened Def Con from 1.02857e-006 to 1.02857e-006
Heightened Def Con from 1.02857e-006 to 1.02857e-006
Heightened Def Con from 1.02857e-006 to 1.02857e-006
Heightened Def Con from 1.02857e-006 to 1.02857e-006
Heightened Def Con from 1.02857e-006 to 1.02857e-006
Heightened Def Con from 1.02857e-006 to 1.02857e-006
Heightened Def Con from 1.02857e-006 to 1.02857e-006
Heightened Def Con from 1.02857e-006 to 1.02857e-006
Heightened Def Con from 1.02857e-006 to 1.02857e-006
Heightened Def Con from 1.02857e-006 to 1.02857e-006
Heightened Def Con from 1.02857e-006 to 1.02857e-006
Heightened Def Con from 1.02858e-006 to 1.02858e-006
Heightened Def Con from 1.02858e-006 to 1.02858e-006
Heightened Def Con from 1.02858e-006 to 1.02858e-006
Heightened Def Con from 1.02858e-006 to 1.02858e-006
Heightened Def Con from 1.02858e-006 to 1.02858e-006
Heightened Def Con from 1.02858e-006 to 1.02858e-006
Heightened Def Con from 1.02858e-006 to 1.02858e-006
Heightened Def Con from 1.02858e-006 to 1.02858e-006
Heightened Def Con from 1.02858e-006 to 1.02858e-006
Heightened Def Con from 1.02858e-006 to 1.02858e-006
Heightened Def Con from 1.02858e-006 to 1.02858e-006
Heightened Def Con from 1.02858e-006 to 1.02858e-006
Heightened Def Con from 1.02858e-006 to 1.02858e-006
Heightened Def Con from 1.02858e-006 to 1.02858e-006
Heightened Def Con from 1.02858e-006 to 1.02858e-006
Heightened Def Con from 1.02858e-006 to 1.02858e-006
Heightened Def Con from 1.02858e-006 to 1.02858e-006
Heightened Def Con from 1.02858e-006 to 1.02858e-006
Heightened Def Con from 1.02858e-006 to 1.02858e-006
Heightened Def Con from 1.02858e-006 to 1.02858e-006
Heightened Def Con from 1.02858e-006 to 1.02858e-006
Heightened Def Con from 1.02858e-006 to 1.02858e-006
Heightened Def Con from 1.02858e-006 to 1.02858e-006
Heightened Def Con from 1.02858e-006 to 1.02858e-006
Heightened Def Con from 1.02858e-006 to 1.02858e-006
Heightened Def Con from 1.02859e-006 to 1.02859e-006
Heightened Def Con from 1.02859e-006 to 1.02859e-006
Heightened Def Con from 1.02859e-006 to 1.02859e-006
Heightened Def Con from 1.02859e-006 to 1.02859e-006
Heightened Def Con from 1.02859e-006 to 1.0286e-006
Heightened Def Con from 1.0286e-006 to 1.0286e-006
Heightened Def Con from 1.0286e-006 to 1.0286e-006
Heightened Def Con from 1.0286e-006 to 1.0286e-006
Heightened Def Con from 1.0286e-006 to 1.0286e-006
Heightened Def Con from 1.0286e-006 to 1.02861e-006
Heightened Def Con from 1.02861e-006 to 1.02861e-006
Heightened Def Con from 1.02861e-006 to 1.02861e-006
Heightened Def Con from 1.02861e-006 to 1.02861e-006
Heightened Def Con from 1.02861e-006 to 1.02861e-006
Heightened Def Con from 1.02861e-006 to 1.02861e-006
Heightened Def Con from 1.02861e-006 to 1.02861e-006
Heightened Def Con from 1.02861e-006 to 1.02861e-006
Heightened Def Con from 1.02861e-006 to 1.02861e-006
Heightened Def Con from 1.02861e-006 to 1.02861e-006
Heightened Def Con from 1.02861e-006 to 1.02861e-006
Heightened Def Con from 1.02861e-006 to 1.02861e-006
Heightened Def Con from 1.02861e-006 to 1.02861e-006
Heightened Def Con from 1.02861e-006 to 1.02861e-006
Heightened Def Con from 1.02861e-006 to 1.02861e-006
Heightened Def Con from 1.02861e-006 to 1.02861e-006
Heightened Def Con from 1.02861e-006 to 1.02861e-006
Heightened Def Con from 1.02861e-006 to 1.02861e-006
Heightened Def Con from 1.02861e-006 to 1.02861e-006
Heightened Def Con from 1.02861e-006 to 1.02861e-006
Heightened Def Con from 1.02862e-006 to 1.02862e-006
Heightened Def Con from 1.02862e-006 to 1.02862e-006
Heightened Def Con from 1.02862e-006 to 1.02862e-006
Heightened Def Con from 1.02862e-006 to 1.02862e-006
Heightened Def Con from 1.02862e-006 to 1.02862e-006
Heightened Def Con from 1.02862e-006 to 1.02862e-006
Heightened Def Con from 1.02862e-006 to 1.02862e-006
Heightened Def Con from 1.02862e-006 to 1.02862e-006
Heightened Def Con from 1.02862e-006 to 1.02862e-006
Heightened Def Con from 1.02862e-006 to 1.02862e-006
Heightened Def Con from 1.02862e-006 to 1.02862e-006
Heightened Def Con from 1.02862e-006 to 1.02862e-006
Heightened Def Con from 1.02862e-006 to 1.02862e-006
Heightened Def Con from 1.02862e-006 to 1.02862e-006
Heightened Def Con from 1.02862e-006 to 1.02862e-006
Heightened Def Con from 1.02862e-006 to 1.02875e-006
Heightened Def Con from 1.02875e-006 to 1.02875e-006
Heightened Def Con from 1.02875e-006 to 1.02875e-006
Heightened Def Con from 1.02875e-006 to 1.02875e-006
Heightened Def Con from 1.02875e-006 to 1.02875e-006
Heightened Def Con from 1.02875e-006 to 1.02875e-006
Heightened Def Con from 1.02875e-006 to 1.02875e-006
Heightened Def Con from 1.02875e-006 to 1.02875e-006
Heightened Def Con from 1.02875e-006 to 1.02888e-006
Heightened Def Con from 1.02888e-006 to 1.02888e-006
Heightened Def Con from 1.02888e-006 +to 1.02888e-006
Heightened Def Con from 1.02888e-006 to 1.02888e-006
Heightened Def Con from 1.02888e-006 to 1.02888e-006
Heightened Def Con from 1.02888e-006 to 1.02888e-006
Heightened Def Con from 1.02888e-006 to 1.02889e-006
Heightened Def Con from 1.02889e-006 to 1.02889e-006
Heightened Def Con from 1.02889e-006 to 1.02889e-006
Heightened Def Con from 1.02889e-006 to 1.02889e-006
Heightened Def Con from 1.02889e-006 to 1.02889e-006
Heightened Def Con from 1.02889e-006 to 1.02889e-006
Heightened Def Con from 1.02889e-006 to 1.02889e-006
Heightened Def Con from 1.02889e-006 to 1.02889e-006
Heightened Def Con from 1.02889e-006 to 1.0289e-006
Heightened Def Con from 1.0289e-006 to 1.0289e-006
Heightened Def Con from 1.0289e-006 to 1.0289e-006
Heightened Def Con from 1.0289e-006 to 1.0299e-006
Heightened Def Con from 1.0299e-006 to 1.0299e-006
Heightened Def Con from 1.0299e-006 to 1.0299e-006
Heightened Def Con from 1.0299e-006 to 1.0299e-006
Heightened Def Con from 1.0299e-006 to 1.0299e-006
Heightened Def Con from 1.0299e-006 to 1.02991e-006
Heightened Def Con from 1.02991e-006 to 1.03004e-006
Heightened Def Con from 1.03004e-006 to 1.03004e-006
Heightened Def Con from 1.03004e-006 to 1.03004e-006
Heightened Def Con from 1.03004e-006 to 1.03004e-006
Heightened Def Con from 1.03004e-006 to 1.03004e-006
Heightened Def Con from 1.03004e-006 to 1.03004e-006
Heightened Def Con from 1.03004e-006 to 1.03004e-006
Heightened Def Con from 1.03004e-006 to 1.03004e-006
Heightened Def Con from 1.03004e-006 to 1.03004e-006
Heightened Def Con from 1.03004e-006 to 1.03004e-006
Heightened Def Con from 1.03004e-006 to 1.03004e-006
Heightened Def Con from 1.03004e-006 to 1.03017e-006
Heightened Def Con from 1.03017e-006 to 1.03017e-006
Heightened Def Con from 1.03017e-006 to 1.03017e-006
Heightened Def Con from 1.03017e-006 to 1.03017e-006
Heightened Def Con from 1.03017e-006 to 1.03017e-006
Heightened Def Con from 1.03017e-006 to 1.03017e-006
Heightened Def Con from 1.03017e-006 to 1.03017e-006
Heightened Def Con from 1.03017e-006 to 1.03017e-006
Heightened Def Con from 1.03017e-006 to 1.03017e-006
Heightened Def Con from 1.03017e-006 to 1.03117e-006
Heightened Def Con from 1.03117e-006 to 1.03117e-006
Heightened Def Con from 1.03117e-006 to 1.03117e-006
Heightened Def Con from 1.03117e-006 to 1.03117e-006
Heightened Def Con from 1.03117e-006 to 1.03117e-006
Heightened Def Con from 1.03117e-006 to 1.03119e-006
Heightened Def Con from 1.03119e-006 to 1.03119e-006
Heightened Def Con from 1.03119e-006 to 1.03119e-006
Heightened Def Con from 1.03119e-006 to 1.03119e-006
Heightened Def Con from 1.03119e-006 to 1.03119e-006
Heightened Def Con from 1.03119e-006 to 1.03132e-006
Heightened Def Con from 1.03132e-006 to 1.03132e-006
Heightened Def Con from 1.03132e-006 to 1.03132e-006
Heightened Def Con from 1.03132e-006 to 1.03132e-006
Heightened Def Con from 1.03132e-006 to 1.03132e-006
Heightened Def Con from 1.03132e-006 to 1.03144e-006
Heightened Def Con from 1.03144e-006 to 1.03144e-006
Heightened Def Con from 1.03144e-006 to 1.03144e-006
Heightened Def Con from 1.03144e-006 to 1.03144e-006
Heightened Def Con from 1.03144e-006 to 1.03144e-006
Heightened Def Con from 1.03144e-006 to 1.03145e-006
Heightened Def Con from 1.03145e-006 to 1.03145e-006
Heightened Def Con from 1.03145e-006 to 1.03145e-006
Heightened Def Con from 1.03145e-006 to 1.03145e-006
Heightened Def Con from 1.03145e-006 to 1.03146e-006
Heightened Def Con from 1.03146e-006 to 1.03146e-006
Heightened Def Con from 1.03146e-006 to 1.03146e-006
Heightened Def Con from 1.03146e-006 to 1.03146e-006
Heightened Def Con from 1.03146e-006 to 1.03146e-006
Heightened Def Con from 1.03146e-006 to 1.03147e-006
Heightened Def Con from 1.03147e-006 to 1.03147e-006
Heightened Def Con from 1.03147e-006 to 1.03159e-006
Heightened Def Con from 1.03159e-006 to 1.03159e-006
Heightened Def Con from 1.03159e-006 to 1.03161e-006
Heightened Def Con from 1.03161e-006 to 1.03162e-006
Heightened Def Con from 1.03162e-006 to 1.03175e-006
Heightened Def Con from 1.03175e-006 to 1.03175e-006
Heightened Def Con from 1.03175e-006 to 1.03175e-006
Heightened Def Con from 1.03175e-006 to 1.03175e-006
Heightened Def Con from 1.03175e-006 to 1.03175e-006
Heightened Def Con from 1.03175e-006 to 1.03176e-006
Heightened Def Con from 1.03176e-006 to 1.03176e-006
Heightened Def Con from 1.03176e-006 to 1.03176e-006
Heightened Def Con from 1.03176e-006 to 1.03176e-006
Heightened Def Con from 1.03176e-006 to 1.03176e-006
Heightened Def Con from 1.03176e-006 to 1.03176e-006
Heightened Def Con from 1.03176e-006 to 1.03176e-006
Heightened Def Con from 1.03176e-006 to 1.03176e-006
Heightened Def Con from 1.03176e-006 to 1.03176e-006
Heightened Def Con from 1.03176e-006 to 1.03176e-006
Heightened Def Con from 1.03176e-006 to 1.03177e-006
Heightened Def Con from 1.03177e-006 to 1.03177e-006
Heightened Def Con from 1.03177e-006 to 1.03177e-006
Heightened Def Con from 1.03177e-006 to 1.03177e-006
Heightened Def Con from 1.03177e-006 to 1.03177e-006
Heightened Def Con from 1.03177e-006 to 1.03177e-006
Heightened Def Con from 1.03177e-006 to 1.03177e-006
Heightened Def Con from 1.03177e-006 to 1.03179e-006
Heightened Def Con from 1.03179e-006 to 1.03179e-006
Heightened Def Con from 1.03179e-006 to 1.03179e-006
Heightened Def Con from 1.03179e-006 to 1.03179e-006
Heightened Def Con from 1.03179e-006 to 1.03179e-006
Heightened Def Con from 1.03179e-006 to 1.03179e-006
Heightened Def Con from 1.03179e-006 to 1.03179e-006
Heightened Def Con from 1.03179e-006 to 1.03279e-006
Heightened Def Con from 1.03279e-006 to 1.03279e-006
Heightened Def Con from 1.03279e-006 to 1.03279e-006
Heightened Def Con from 1.03279e-006 to 1.03279e-006
Heightened Def Con from 1.03279e-006 to 1.03279e-006
Heightened Def Con from 1.03279e-006 to 1.03279e-006
Heightened Def Con from 1.03279e-006 to 1.03279e-006
Heightened Def Con from 1.03279e-006 to 1.03279e-006
Heightened Def Con from 1.03279e-006 to 1.03279e-006
Heightened Def Con from 1.03279e-006 to 1.03293e-006
Heightened Def Con from 1.03293e-006 to 1.03293e-006
Heightened Def Con from 1.03293e-006 to 1.03293e-006
Heightened Def Con from 1.03293e-006 to 1.03295e-006
Heightened Def Con from 1.03295e-006 to 1.03295e-006
Heightened Def Con from 1.03295e-006 to 1.03295e-006
Heightened Def Con from 1.03295e-006 to 1.03295e-006
Heightened Def Con from 1.03295e-006 to 1.03295e-006
Heightened Def Con from 1.03295e-006 to 1.03309e-006
Heightened Def Con from 1.03309e-006 to 1.03309e-006
Heightened Def Con from 1.03309e-006 to 1.03309e-006
Heightened Def Con from 1.03309e-006 to 1.03309e-006
Heightened Def Con from 1.03309e-006 to 1.03309e-006
Heightened Def Con from 1.03309e-006 to 1.03309e-006
Heightened Def Con from 1.03309e-006 to 1.03311e-006
Heightened Def Con from 1.03311e-006 to 1.03311e-006
Heightened Def Con from 1.03311e-006 to 1.03324e-006
Heightened Def Con from 1.03324e-006 to 1.03324e-006
Heightened Def Con from 1.03324e-006 to 1.03324e-006
Heightened Def Con from 1.03324e-006 to 1.03324e-006
Heightened Def Con from 1.03324e-006 to 1.03324e-006
Heightened Def Con from 1.03324e-006 to 1.03324e-006
Heightened Def Con from 1.03324e-006 to 1.03336e-006
Heightened Def Con from 1.03336e-006 to 1.03336e-006
Heightened Def Con from 1.03336e-006 to 1.03336e-006
Heightened Def Con from 1.03336e-006 to 1.03336e-006
Heightened Def Con from 1.03336e-006 to 1.03336e-006
Heightened Def Con from 1.03336e-006 to 1.03336e-006
Heightened Def Con from 1.03336e-006 to 1.03336e-006
Heightened Def Con from 1.03336e-006 to 1.03336e-006
Heightened Def Con from 1.03336e-006 to 1.03336e-006
Heightened Def Con from 1.03336e-006 to 1.03336e-006
Heightened Def Con from 1.03336e-006 to 1.03337e-006
Heightened Def Con from 1.03337e-006 +to 1.03337e-006
Heightened Def Con from 1.03337e-006 to 1.03337e-006
Heightened Def Con from 1.03337e-006 to 1.03339e-006
Heightened Def Con from 1.03339e-006 to 1.03339e-006
Heightened Def Con from 1.03339e-006 to 1.03439e-006
Heightened Def Con from 1.03439e-006 to 1.03439e-006
Heightened Def Con from 1.03439e-006 to 1.03439e-006
Heightened Def Con from 1.03439e-006 to 1.03439e-006
Heightened Def Con from 1.03439e-006 to 1.03439e-006
Heightened Def Con from 1.03439e-006 to 1.03439e-006
Heightened Def Con from 1.03439e-006 to 1.03439e-006
Heightened Def Con from 1.03439e-006 to 1.03439e-006
Heightened Def Con from 1.03439e-006 to 1.03439e-006
Heightened Def Con from 1.03439e-006 to 1.03439e-006
Heightened Def Con from 1.03439e-006 to 1.03439e-006
Heightened Def Con from 1.03439e-006 to 1.03439e-006
Heightened Def Con from 1.03439e-006 to 1.03439e-006
Heightened Def Con from 1.03439e-006 to 1.03439e-006
Heightened Def Con from 1.03439e-006 to 1.0344e-006
Heightened Def Con from 1.0344e-006 to 1.0344e-006
Heightened Def Con from 1.0344e-006 +to 1.03452e-006
Heightened Def Con from 1.03452e-006 to 1.03452e-006
Heightened Def Con from 1.03452e-006 to 1.03452e-006
Heightened Def Con from 1.03452e-006 to 1.03452e-006
Heightened Def Con from 1.03452e-006 to 1.03465e-006
Heightened Def Con from 1.03465e-006 to 1.03465e-006
Heightened Def Con from 1.03465e-006 +to 1.03465e-006
Heightened Def Con from 1.03465e-006 to 1.03465e-006
Heightened Def Con from 1.03465e-006 to 1.03465e-006
Heightened Def Con from 1.03465e-006 to 1.03465e-006
Heightened Def Con from 1.03465e-006 to 1.03477e-006
Heightened Def Con from 1.03477e-006 to 1.03477e-006
Heightened Def Con from 1.03477e-006 to 1.03477e-006
Heightened Def Con from 1.03477e-006 to 1.03477e-006
Heightened Def Con from 1.03477e-006 to 1.03477e-006
Heightened Def Con from 1.03477e-006 to 1.03477e-006
Heightened Def Con from 1.03477e-006 to 1.03477e-006
Heightened Def Con from 1.03477e-006 to 1.03477e-006
Heightened Def Con from 1.03477e-006 to 1.03477e-006
Heightened Def Con from 1.03477e-006 to 1.03477e-006
Heightened Def Con from 1.03477e-006 to 1.03577e-006
Heightened Def Con from 1.03577e-006 to 1.0359e-006
Heightened Def Con from 1.0359e-006 to 1.0359e-006
Heightened Def Con from 1.0359e-006 to 1.03602e-006
Heightened Def Con from 1.03602e-006 to 1.03602e-006
Heightened Def Con from 1.03602e-006 to 1.03602e-006
Heightened Def Con from 1.03602e-006 to 1.03602e-006
Heightened Def Con from 1.03602e-006 to 1.03602e-006
Heightened Def Con from 1.03602e-006 to 1.03603e-006
Heightened Def Con from 1.03603e-006 to 1.03604e-006
Heightened Def Con from 1.03604e-006 to 1.03604e-006
Heightened Def Con from 1.03604e-006 to 1.03604e-006
Heightened Def Con from 1.03604e-006 to 1.03604e-006
Heightened Def Con from 1.03604e-006 to 1.03604e-006
Heightened Def Con from 1.03604e-006 to 1.03606e-006
Heightened Def Con from 1.03606e-006 to 1.03606e-006
Heightened Def Con from 1.03606e-006 to 1.03606e-006
Heightened Def Con from 1.03606e-006 to 1.03606e-006
Heightened Def Con from 1.03606e-006 to 1.03606e-006
Heightened Def Con from 1.03606e-006 to 1.03606e-006
Heightened Def Con from 1.03606e-006 to 1.03606e-006
Heightened Def Con from 1.03606e-006 to 1.03606e-006
Heightened Def Con from 1.03606e-006 to 1.03606e-006
Heightened Def Con from 1.03606e-006 to 1.03606e-006
Heightened Def Con from 1.03606e-006 to 1.03606e-006
Heightened Def Con from 1.03606e-006 to 1.03606e-006
Heightened Def Con from 1.03606e-006 to 1.03606e-006
Heightened Def Con from 1.03606e-006 to 1.03606e-006
Heightened Def Con from 1.03606e-006 to 1.03608e-006
Heightened Def Con from 1.03608e-006 to 1.03608e-006
Heightened Def Con from 1.03608e-006 to 1.03608e-006
Heightened Def Con from 1.03608e-006 to 1.03608e-006
Heightened Def Con from 1.03608e-006 to 1.03608e-006
Heightened Def Con from 1.03608e-006 to 1.03608e-006
Heightened Def Con from 1.03608e-006 to 1.03608e-006
Heightened Def Con from 1.03608e-006 to 1.03608e-006
Heightened Def Con from 1.03608e-006 to 1.03608e-006
Heightened Def Con from 1.03608e-006 to 1.03608e-006
Heightened Def Con from 1.03608e-006 to 1.03608e-006
Heightened Def Con from 1.03608e-006 to 1.03608e-006
Heightened Def Con from 1.03608e-006 to 1.03608e-006
Heightened Def Con from 1.03608e-006 to 1.03608e-006
Heightened Def Con from 1.03608e-006 to 1.03608e-006
Heightened Def Con from 1.03608e-006 to 1.03608e-006
Heightened Def Con from 1.03608e-006 to 1.03621e-006
Heightened Def Con from 1.03621e-006 to 1.03621e-006
Heightened Def Con from 1.03621e-006 to 1.03621e-006
Heightened Def Con from 1.03621e-006 to 1.03621e-006
Heightened Def Con from 1.03621e-006 to 1.03621e-006
Heightened Def Con from 1.03621e-006 to 1.03721e-006
Heightened Def Con from 1.03721e-006 to 1.03721e-006
Heightened Def Con from 1.03721e-006 to 1.03721e-006
Heightened Def Con from 1.03721e-006 to 1.03721e-006
Heightened Def Con from 1.03721e-006 to 1.03721e-006
Heightened Def Con from 1.03721e-006 to 1.03721e-006
Heightened Def Con from 1.03721e-006 to 1.03834e-006
Heightened Def Con from 1.03834e-006 +to 1.03834e-006
Heightened Def Con from 1.03834e-006 to 1.03934e-006
Heightened Def Con from 1.03934e-006 to 1.03934e-006
Heightened Def Con from 1.03934e-006 to 1.03934e-006
Heightened Def Con from 1.03934e-006 to 1.03934e-006
Heightened Def Con from 1.03934e-006 to 1.03934e-006
Heightened Def Con from 1.03934e-006 to 1.03934e-006
Heightened Def Con from 1.03934e-006 to 1.03934e-006
Heightened Def Con from 1.03934e-006 to 1.03934e-006
Heightened Def Con from 1.03934e-006 to 1.03934e-006
Heightened Def Con from 1.03934e-006 to 1.03934e-006
Heightened Def Con from 1.03934e-006 to 1.03946e-006
Heightened Def Con from 1.03946e-006 to 1.04046e-006
Heightened Def Con from 1.04046e-006 to 1.04046e-006
Heightened Def Con from 1.04046e-006 to 1.04059e-006
Heightened Def Con from 1.04059e-006 to 1.04059e-006
Heightened Def Con from 1.04059e-006 to 1.04059e-006
Heightened Def Con from 1.04059e-006 to 1.04059e-006
Heightened Def Con from 1.04059e-006 to 1.04059e-006
Heightened Def Con from 1.04059e-006 to 1.04059e-006
Heightened Def Con from 1.04059e-006 to 1.04059e-006
Heightened Def Con from 1.04059e-006 to 1.04059e-006
Heightened Def Con from 1.04059e-006 to 1.04059e-006
Heightened Def Con from 1.04059e-006 to 1.04059e-006
Heightened Def Con from 1.04059e-006 to 1.04059e-006
Heightened Def Con from 1.04059e-006 to 1.04059e-006
Heightened Def Con from 1.04059e-006 to 1.04059e-006
Heightened Def Con from 1.04059e-006 to 1.04059e-006
Heightened Def Con from 1.04059e-006 to 1.04059e-006
Heightened Def Con from 1.04059e-006 to 1.04059e-006
Heightened Def Con from 1.04059e-006 to 1.04059e-006
Heightened Def Con from 1.04059e-006 to 1.04059e-006
Heightened Def Con from 1.04059e-006 to 1.04059e-006
Heightened Def Con from 1.04059e-006 to 1.04059e-006
Heightened Def Con from 1.04059e-006 to 1.04059e-006
Heightened Def Con from 1.04059e-006 to 1.04061e-006
Heightened Def Con from 1.04061e-006 to 1.04061e-006
Heightened Def Con from 1.04061e-006 to 1.04061e-006
Heightened Def Con from 1.04061e-006 to 1.04061e-006
Heightened Def Con from 1.04061e-006 +to 1.04061e-006
Heightened Def Con from 1.04061e-006 to 1.04061e-006
Heightened Def Con from 1.04061e-006 to 1.04061e-006
Heightened Def Con from 1.04061e-006 to 1.04061e-006
Heightened Def Con from 1.04061e-006 to 1.04061e-006
Heightened Def Con from 1.04061e-006 to 1.04061e-006
Heightened Def Con from 1.04061e-006 to 1.04061e-006
Heightened Def Con from 1.04061e-006 to 1.04061e-006
Heightened Def Con from 1.04061e-006 to 1.04074e-006
Heightened Def Con from 1.04074e-006 to 1.04075e-006
Heightened Def Con from 1.04075e-006 to 1.04075e-006
Heightened Def Con from 1.04075e-006 to 1.04075e-006
Heightened Def Con from 1.04075e-006 to 1.04175e-006
Heightened Def Con from 1.04175e-006 to 1.04175e-006
Heightened Def Con from 1.04175e-006 to 1.04188e-006
Heightened Def Con from 1.04188e-006 to 1.04189e-006
Heightened Def Con from 1.04189e-006 to 1.04189e-006
Heightened Def Con from 1.04189e-006 to 1.04189e-006
Heightened Def Con from 1.04189e-006 to 1.04189e-006
Heightened Def Con from 1.04189e-006 to 1.0419e-006
Heightened Def Con from 1.0419e-006 to 1.0419e-006
Heightened Def Con from 1.0419e-006 to 1.0419e-006
Heightened Def Con from 1.0419e-006 to 1.0419e-006
Heightened Def Con from 1.0419e-006 to 1.0419e-006
Heightened Def Con from 1.0419e-006 to 1.0419e-006
Heightened Def Con from 1.0419e-006 to 1.0419e-006
Heightened Def Con from 1.0419e-006 to 1.0419e-006
Heightened Def Con from 1.0419e-006 to 1.0419e-006
Heightened Def Con from 1.0419e-006 to 1.0419e-006
Heightened Def Con from 1.0419e-006 to 1.0419e-006
Heightened Def Con from 1.0419e-006 to 1.0419e-006
Heightened Def Con from 1.0419e-006 to 1.0419e-006
Heightened Def Con from 1.0419e-006 to 1.0419e-006
Heightened Def Con from 1.0419e-006 to 1.0419e-006
Heightened Def Con from 1.0419e-006 to 1.0419e-006
Heightened Def Con from 1.0419e-006 to 1.0419e-006
Heightened Def Con from 1.0419e-006 to 1.0419e-006
Heightened Def Con from 1.04191e-006 to 1.04191e-006
Heightened Def Con from 1.04191e-006 to 1.04191e-006
Heightened Def Con from 1.04191e-006 to 1.04191e-006
Heightened Def Con from 1.04191e-006 to 1.04191e-006
Heightened Def Con from 1.04191e-006 to 1.04191e-006
Heightened Def Con from 1.04191e-006 to 1.04191e-006
Heightened Def Con from 1.04191e-006 to 1.04203e-006
Heightened Def Con from 1.04203e-006 to 1.04203e-006
Heightened Def Con from 1.04203e-006 to 1.04203e-006
Heightened Def Con from 1.04203e-006 to 1.04216e-006
Heightened Def Con from 1.04216e-006 to 1.04216e-006
Heightened Def Con from 1.04216e-006 to 1.04216e-006
Heightened Def Con from 1.04216e-006 to 1.04216e-006
Heightened Def Con from 1.04216e-006 to 1.04216e-006
Heightened Def Con from 1.04216e-006 to 1.04316e-006
Heightened Def Con from 1.04316e-006 to 1.04318e-006
Heightened Def Con from 1.04318e-006 to 1.04318e-006
Heightened Def Con from 1.04318e-006 to 1.04318e-006
Heightened Def Con from 1.04318e-006 to 1.04318e-006
Heightened Def Con from 1.04318e-006 to 1.04318e-006
Heightened Def Con from 1.04318e-006 to 1.04318e-006
Heightened Def Con from 1.04318e-006 to 1.04319e-006
Heightened Def Con from 1.04319e-006 to 1.04319e-006
Heightened Def Con from 1.04319e-006 to 1.0432e-006
Heightened Def Con from 1.0432e-006 to 1.0432e-006
Heightened Def Con from 1.0432e-006 to 1.0432e-006
Heightened Def Con from 1.0432e-006 to 1.0432e-006
Heightened Def Con from 1.0432e-006 to 1.0442e-006
Heightened Def Con from 1.0442e-006 to 1.04445e-006
Heightened Def Con from 1.04445e-006 to 1.04445e-006
Heightened Def Con from 1.04445e-006 +to 1.04545e-006
Heightened Def Con from 1.04545e-006 to 1.04545e-006
Heightened Def Con from 1.04545e-006 to 1.04545e-006
Heightened Def Con from 1.04545e-006 to 1.04545e-006
Heightened Def Con from 1.04545e-006 to 1.04545e-006
Heightened Def Con from 1.04545e-006 to 1.04545e-006
Heightened Def Con from 1.04545e-006 +to 1.04545e-006
Heightened Def Con from 1.04545e-006 to 1.04545e-006
Heightened Def Con from 1.04545e-006 to 1.04545e-006
Heightened Def Con from 1.04545e-006 to 1.04545e-006
Heightened Def Con from 1.04545e-006 to 1.04545e-006
Heightened Def Con from 1.04545e-006 to 1.04545e-006
Heightened Def Con from 1.04545e-006 +to 1.04558e-006
Heightened Def Con from 1.04558e-006 +to 1.04558e-006
Heightened Def Con from 1.04558e-006 to 1.04558e-006
Heightened Def Con from 1.04558e-006 to 1.04558e-006
Heightened Def Con from 1.04558e-006 to 1.04558e-006
Heightened Def Con from 1.04558e-006 to 1.04559e-006
Heightened Def Con from 1.04559e-006 to 1.04559e-006
Heightened Def Con from 1.04559e-006 to 1.04559e-006
Heightened Def Con from 1.04559e-006 to 1.04559e-006
Heightened Def Con from 1.04559e-006 to 1.0456e-006
Heightened Def Con from 1.0456e-006 to 1.0456e-006
Heightened Def Con from 1.0456e-006 to 1.0456e-006
Heightened Def Con from 1.0456e-006 to 1.0456e-006
Heightened Def Con from 1.0456e-006 to 1.0456e-006
Heightened Def Con from 1.0456e-006 to 1.0456e-006
Heightened Def Con from 1.0456e-006 to 1.0456e-006
Heightened Def Con from 1.0456e-006 to 1.0456e-006
Heightened Def Con from 1.0456e-006 to 1.0456e-006
Heightened Def Con from 1.0456e-006 to 1.0466e-006
Heightened Def Con from 1.0466e-006 to 1.0466e-006
Heightened Def Con from 1.0466e-006 to 1.04685e-006
Heightened Def Con from 1.04685e-006 to 1.04685e-006
Heightened Def Con from 1.04685e-006 to 1.04685e-006
Heightened Def Con from 1.04685e-006 to 1.04687e-006
Heightened Def Con from 1.04687e-006 to 1.04688e-006
Heightened Def Con from 1.04688e-006 to 1.04688e-006
Heightened Def Con from 1.04688e-006 +to 1.04688e-006
Heightened Def Con from 1.04688e-006 to 1.04688e-006
Heightened Def Con from 1.04688e-006 to 1.04688e-006
Heightened Def Con from 1.04688e-006 to 1.04688e-006
Heightened Def Con from 1.04688e-006 to 1.04701e-006
Heightened Def Con from 1.04701e-006 to 1.04713e-006
Heightened Def Con from 1.04713e-006 to 1.04713e-006
Heightened Def Con from 1.04713e-006 to 1.04713e-006
Heightened Def Con from 1.04713e-006 to 1.04713e-006
Heightened Def Con from 1.04713e-006 to 1.04713e-006
Heightened Def Con from 1.04713e-006 to 1.04726e-006
Heightened Def Con from 1.04726e-006 to 1.04726e-006
Heightened Def Con from 1.04726e-006 to 1.04726e-006
Heightened Def Con from 1.04726e-006 to 1.04826e-006
Heightened Def Con from 1.04826e-006 to 1.04826e-006
Heightened Def Con from 1.04826e-006 to 1.04826e-006
Heightened Def Con from 1.04826e-006 to 1.04826e-006
Heightened Def Con from 1.04826e-006 +to 1.04826e-006
Heightened Def Con from 1.04826e-006 to 1.04826e-006
Heightened Def Con from 1.04826e-006 to 1.04826e-006
Heightened Def Con from 1.04826e-006 to 1.04926e-006
Heightened Def Con from 1.04926e-006 to 1.04926e-006
Heightened Def Con from 1.04926e-006 to 1.04926e-006
Heightened Def Con from 1.04926e-006 to 1.04926e-006
Heightened Def Con from 1.04926e-006 to 1.04926e-006
Heightened Def Con from 1.04926e-006 to 1.04926e-006
Heightened Def Con from 1.04926e-006 to 1.04939e-006
Heightened Def Con from 1.04939e-006 to 1.04939e-006
Heightened Def Con from 1.04939e-006 to 1.04951e-006
Heightened Def Con from 1.04951e-006 to 1.04952e-006
Heightened Def Con from 1.04952e-006 to 1.04952e-006
Heightened Def Con from 1.04952e-006 to 1.04952e-006
Heightened Def Con from 1.04952e-006 to 1.04953e-006
Heightened Def Con from 1.04953e-006 to 1.04953e-006
Heightened Def Con from 1.04953e-006 to 1.04953e-006
Heightened Def Con from 1.04953e-006 to 1.05053e-006
Heightened Def Con from 1.05053e-006 to 1.05053e-006
Heightened Def Con from 1.05053e-006 to 1.05153e-006
Heightened Def Con from 1.05153e-006 to 1.05154e-006
Heightened Def Con from 1.05154e-006 +to 1.05254e-006
Heightened Def Con from 1.05254e-006 to 1.05254e-006
Heightened Def Con from 1.05254e-006 to 1.05254e-006
Heightened Def Con from 1.05254e-006 to 1.05254e-006
Heightened Def Con from 1.05254e-006 to 1.05254e-006
Heightened Def Con from 1.05254e-006 to 1.05254e-006
Heightened Def Con from 1.05254e-006 to 1.05254e-006
Heightened Def Con from 1.05254e-006 to 1.05254e-006
Heightened Def Con from 1.05254e-006 to 1.05254e-006
Heightened Def Con from 1.05254e-006 to 1.05254e-006
Heightened Def Con from 1.05254e-006 to 1.05254e-006
Heightened Def Con from 1.05254e-006 to 1.05254e-006
Heightened Def Con from 1.05254e-006 to 1.05254e-006
Heightened Def Con from 1.05254e-006 to 1.05254e-006
Heightened Def Con from 1.05254e-006 to 1.05266e-006
Heightened Def Con from 1.05266e-006 to 1.05266e-006
Heightened Def Con from 1.05266e-006 to 1.05266e-006
Heightened Def Con from 1.05266e-006 to 1.05266e-006
Heightened Def Con from 1.05266e-006 to 1.05266e-006
Heightened Def Con from 1.05266e-006 to 1.05266e-006
Heightened Def Con from 1.05266e-006 to 1.05279e-006
Heightened Def Con from 1.05279e-006 to 1.05279e-006
Heightened Def Con from 1.05279e-006 to 1.05279e-006
Heightened Def Con from 1.05279e-006 +to 1.05279e-006
Heightened Def Con from 1.05279e-006 to 1.05279e-006
Heightened Def Con from 1.05279e-006 to 1.05279e-006
Heightened Def Con from 1.05279e-006 to 1.05279e-006
Heightened Def Con from 1.05279e-006 to 1.05279e-006
Heightened Def Con from 1.05279e-006 to 1.05279e-006
Heightened Def Con from 1.05279e-006 to 1.05279e-006
Heightened Def Con from 1.05279e-006 to 1.05279e-006
Heightened Def Con from 1.05279e-006 to 1.05279e-006
Heightened Def Con from 1.05279e-006 to 1.05279e-006
Heightened Def Con from 1.05279e-006 to 1.05304e-006
Heightened Def Con from 1.05304e-006 to 1.05304e-006
Heightened Def Con from 1.05304e-006 to 1.05304e-006
Heightened Def Con from 1.05304e-006 to 1.05304e-006
Heightened Def Con from 1.05304e-006 to 1.05304e-006
Heightened Def Con from 1.05304e-006 to 1.05304e-006
Heightened Def Con from 1.05304e-006 to 1.05404e-006
Heightened Def Con from 1.05404e-006 to 1.05404e-006
Heightened Def Con from 1.05404e-006 to 1.05404e-006
Heightened Def Con from 1.05404e-006 to 1.05404e-006
Heightened Def Con from 1.05404e-006 to 1.05404e-006
Heightened Def Con from 1.05404e-006 to 1.05404e-006
Heightened Def Con from 1.05404e-006 to 1.05404e-006
Heightened Def Con from 1.05404e-006 to 1.05404e-006
Heightened Def Con from 1.05404e-006 to 1.05404e-006
Heightened Def Con from 1.05404e-006 to 1.05404e-006
Heightened Def Con from 1.05404e-006 to 1.05404e-006
Heightened Def Con from 1.05404e-006 to 1.05405e-006
Heightened Def Con from 1.05405e-006 to 1.05405e-006
Heightened Def Con from 1.05405e-006 to 1.05405e-006
Heightened Def Con from 1.05405e-006 to 1.05405e-006
Heightened Def Con from 1.05405e-006 to 1.05405e-006
Heightened Def Con from 1.05405e-006 to 1.05405e-006
Heightened Def Con from 1.05405e-006 to 1.05405e-006
Heightened Def Con from 1.05405e-006 to 1.05405e-006
Heightened Def Con from 1.05405e-006 to 1.05405e-006
Heightened Def Con from 1.05405e-006 to 1.05405e-006
Heightened Def Con from 1.05405e-006 to 1.05405e-006
Heightened Def Con from 1.05405e-006 to 1.05405e-006
Heightened Def Con from 1.05405e-006 to 1.05405e-006
Heightened Def Con from 1.05405e-006 to 1.05405e-006
Heightened Def Con from 1.05405e-006 to 1.05405e-006
Heightened Def Con from 1.05405e-006 to 1.05418e-006
Heightened Def Con from 1.05418e-006 to 1.05418e-006
Heightened Def Con from 1.05418e-006 to 1.05418e-006
Heightened Def Con from 1.05418e-006 to 1.05418e-006
Heightened Def Con from 1.05418e-006 to 1.05418e-006
Heightened Def Con from 1.05418e-006 to 1.05418e-006
Heightened Def Con from 1.05418e-006 to 1.05418e-006
Heightened Def Con from 1.05418e-006 to 1.0543e-006
Heightened Def Con from 1.0543e-006 to 1.0543e-006
Heightened Def Con from 1.0543e-006 to 1.0543e-006
Heightened Def Con from 1.0543e-006 to 1.0543e-006
Heightened Def Con from 1.0543e-006 to 1.0543e-006
Heightened Def Con from 1.0543e-006 to 1.0553e-006
Heightened Def Con from 1.0553e-006 to 1.0563e-006
Heightened Def Con from 1.0563e-006 to 1.0573e-006
Heightened Def Con from 1.0573e-006 to 1.0573e-006
Heightened Def Con from 1.0573e-006 to 1.05731e-006
Heightened Def Con from 1.05731e-006 to 1.05731e-006
Heightened Def Con from 1.05731e-006 to 1.05831e-006
Heightened Def Con from 1.05831e-006 to 1.05831e-006
Heightened Def Con from 1.05831e-006 to 1.05831e-006
Heightened Def Con from 1.05831e-006 to 1.05843e-006
Heightened Def Con from 1.05843e-006 to 1.05843e-006
Heightened Def Con from 1.05843e-006 to 1.05843e-006
Heightened Def Con from 1.05843e-006 to 1.05843e-006
Heightened Def Con from 1.05843e-006 to 1.05843e-006
Heightened Def Con from 1.05843e-006 to 1.05843e-006
Heightened Def Con from 1.05843e-006 to 1.05844e-006
Heightened Def Con from 1.05844e-006 to 1.05944e-006
Heightened Def Con from 1.05944e-006 to 1.05944e-006
Heightened Def Con from 1.05944e-006 to 1.05944e-006
Heightened Def Con from 1.05944e-006 to 1.06044e-006
Heightened Def Con from 1.06044e-006 to 1.06056e-006
Heightened Def Con from 1.06056e-006 to 1.06056e-006
Heightened Def Con from 1.06056e-006 to 1.06056e-006
Heightened Def Con from 1.06056e-006 to 1.06156e-006
Heightened Def Con from 1.06156e-006 to 1.06156e-006
Heightened Def Con from 1.06156e-006 to 1.06158e-006
Heightened Def Con from 1.06158e-006 to 1.06158e-006
Heightened Def Con from 1.06158e-006 to 1.06158e-006
Heightened Def Con from 1.06158e-006 to 1.06358e-006
Heightened Def Con from 1.06358e-006 to 1.06358e-006
Heightened Def Con from 1.06358e-006 to 1.06358e-006
Heightened Def Con from 1.06358e-006 to 1.06358e-006
Heightened Def Con from 1.06358e-006 to 1.0637e-006
Heightened Def Con from 1.0637e-006 to 1.0637e-006
Heightened Def Con from 1.0637e-006 to 1.0637e-006
Heightened Def Con from 1.0637e-006 to 1.0637e-006
Heightened Def Con from 1.0637e-006 to 1.06371e-006
Heightened Def Con from 1.06371e-006 to 1.06371e-006
Heightened Def Con from 1.06371e-006 to 1.06371e-006
Heightened Def Con from 1.06371e-006 to 1.06371e-006
Heightened Def Con from 1.06371e-006 to 1.06371e-006
Heightened Def Con from 1.06371e-006 to 1.06371e-006
Heightened Def Con from 1.06371e-006 to 1.06371e-006
Heightened Def Con from 1.06371e-006 +to 1.06373e-006
Heightened Def Con from 1.06373e-006 to 1.06373e-006
Heightened Def Con from 1.06373e-006 to 1.06374e-006
Heightened Def Con from 1.06374e-006 to 1.06374e-006
Heightened Def Con from 1.06374e-006 to 1.06374e-006
Heightened Def Con from 1.06374e-006 to 1.06374e-006
Heightened Def Con from 1.06374e-006 to 1.06374e-006
Heightened Def Con from 1.06374e-006 to 1.06374e-006
Heightened Def Con from 1.06374e-006 to 1.06374e-006
Heightened Def Con from 1.06374e-006 to 1.06374e-006
Heightened Def Con from 1.06374e-006 to 1.06374e-006
Heightened Def Con from 1.06374e-006 to 1.06387e-006
Heightened Def Con from 1.06387e-006 to 1.06387e-006
Heightened Def Con from 1.06387e-006 to 1.06387e-006
Heightened Def Con from 1.06387e-006 to 1.06387e-006
Heightened Def Con from 1.06387e-006 to 1.06387e-006
Heightened Def Con from 1.06387e-006 to 1.06387e-006
Heightened Def Con from 1.06387e-006 to 1.06387e-006
Heightened Def Con from 1.06387e-006 to 1.06387e-006
Heightened Def Con from 1.06387e-006 to 1.06388e-006
Heightened Def Con from 1.06389e-006 +to 1.06389e-006
Heightened Def Con from 1.06389e-006 to 1.06389e-006
Heightened Def Con from 1.06389e-006 to 1.06389e-006
Heightened Def Con from 1.06389e-006 +to 1.06389e-006
Heightened Def Con from 1.06389e-006 to 1.0639e-006
Heightened Def Con from 1.0639e-006 to 1.0639e-006
Heightened Def Con from 1.0639e-006 to 1.0639e-006
Heightened Def Con from 1.0639e-006 to 1.0639e-006
Heightened Def Con from 1.0639e-006 to 1.06391e-006
Heightened Def Con from 1.06391e-006 to 1.06392e-006
Heightened Def Con from 1.06392e-006 to 1.06392e-006
Heightened Def Con from 1.06392e-006 to 1.06392e-006
Heightened Def Con from 1.06392e-006 to 1.06393e-006
Heightened Def Con from 1.06393e-006 to 1.06393e-006
Heightened Def Con from 1.06393e-006 to 1.06393e-006
Heightened Def Con from 1.06393e-006 to 1.06393e-006
Heightened Def Con from 1.06393e-006 +to 1.06393e-006
Heightened Def Con from 1.06393e-006 to 1.06393e-006
Heightened Def Con from 1.06393e-006 to 1.06393e-006
Heightened Def Con from 1.06393e-006 to 1.06393e-006
Heightened Def Con from 1.06393e-006 to 1.06393e-006
Heightened Def Con from 1.06393e-006 to 1.06393e-006
Heightened Def Con from 1.06393e-006 to 1.06406e-006
Heightened Def Con from 1.06406e-006 to 1.06406e-006
Heightened Def Con from 1.06406e-006 to 1.06406e-006
Heightened Def Con from 1.06406e-006 +to 1.06406e-006
Heightened Def Con from 1.06406e-006 to 1.06406e-006
Heightened Def Con from 1.06406e-006 to 1.06406e-006
Heightened Def Con from 1.06406e-006 to 1.06406e-006
Heightened Def Con from 1.06406e-006 to 1.06406e-006
Heightened Def Con from 1.06406e-006 to 1.06406e-006
Heightened Def Con from 1.06406e-006 to 1.06406e-006
Heightened Def Con from 1.06406e-006 +to 1.06406e-006
Heightened Def Con from 1.06406e-006 to 1.06407e-006
Heightened Def Con from 1.06407e-006 to 1.06407e-006
Heightened Def Con from 1.06407e-006 to 1.06407e-006
Heightened Def Con from 1.06407e-006 to 1.06407e-006
Heightened Def Con from 1.06407e-006 +to 1.06419e-006
Heightened Def Con from 1.06419e-006 to 1.06419e-006
Heightened Def Con from 1.06419e-006 to 1.06419e-006
Heightened Def Con from 1.06419e-006 to 1.06419e-006
Heightened Def Con from 1.06419e-006 +to 1.06419e-006
Heightened Def Con from 1.06419e-006 +to 1.0642e-006
Heightened Def Con from 1.0642e-006 to 1.0652e-006
Heightened Def Con from 1.0652e-006 to 1.0652e-006
Heightened Def Con from 1.0652e-006 to 1.0652e-006
Heightened Def Con from 1.0652e-006 to 1.0652e-006
Heightened Def Con from 1.0652e-006 to 1.0652e-006
Heightened Def Con from 1.0652e-006 to 1.0652e-006
Heightened Def Con from 1.0652e-006 to 1.0652e-006
Heightened Def Con from 1.0652e-006 to 1.0652e-006
Heightened Def Con from 1.0652e-006 to 1.0652e-006
Heightened Def Con from 1.0652e-006 to 1.0652e-006
Heightened Def Con from 1.0652e-006 to 1.0652e-006
Heightened Def Con from 1.0652e-006 to 1.06534e-006
Heightened Def Con from 1.06534e-006 to 1.06534e-006
Heightened Def Con from 1.06534e-006 to 1.06534e-006
Heightened Def Con from 1.06534e-006 to 1.06534e-006
Heightened Def Con from 1.06534e-006 to 1.06536e-006
Heightened Def Con from 1.06536e-006 to 1.06536e-006
Heightened Def Con from 1.06536e-006 to 1.06536e-006
Heightened Def Con from 1.06536e-006 to 1.06536e-006
Heightened Def Con from 1.06536e-006 to 1.06536e-006
Heightened Def Con from 1.06536e-006 to 1.06536e-006
Heightened Def Con from 1.06536e-006 to 1.06536e-006
Heightened Def Con from 1.06536e-006 to 1.06536e-006
Heightened Def Con from 1.06536e-006 to 1.06536e-006
Heightened Def Con from 1.06536e-006 +to 1.06536e-006
Heightened Def Con from 1.06536e-006 to 1.06536e-006
Heightened Def Con from 1.06536e-006 to 1.06536e-006
Heightened Def Con from 1.06536e-006 to 1.06536e-006
Heightened Def Con from 1.06536e-006 to 1.06536e-006
Heightened Def Con from 1.06536e-006 to 1.06538e-006
Heightened Def Con from 1.06538e-006 to 1.06638e-006
Heightened Def Con from 1.06638e-006 to 1.06638e-006
Heightened Def Con from 1.06638e-006 to 1.06638e-006
Heightened Def Con from 1.06638e-006 to 1.06638e-006
Heightened Def Con from 1.06638e-006 to 1.06638e-006
Heightened Def Con from 1.06638e-006 +to 1.06638e-006
Heightened Def Con from 1.06638e-006 to 1.06638e-006
Heightened Def Con from 1.06638e-006 to 1.06638e-006
Heightened Def Con from 1.06638e-006 to 1.06638e-006
Heightened Def Con from 1.06638e-006 to 1.06638e-006
Heightened Def Con from 1.06638e-006 to 1.06638e-006
Heightened Def Con from 1.06638e-006 to 1.06638e-006
Heightened Def Con from 1.06638e-006 to 1.06638e-006
Heightened Def Con from 1.06638e-006 +to 1.06638e-006
Heightened Def Con from 1.06638e-006 to 1.06638e-006
Heightened Def Con from 1.06638e-006 to 1.06638e-006
Heightened Def Con from 1.06638e-006 to 1.06638e-006
Heightened Def Con from 1.06638e-006 to 1.06638e-006
Heightened Def Con from 1.06638e-006 to 1.06638e-006
Heightened Def Con from 1.06638e-006 to 1.06638e-006
Heightened Def Con from 1.06638e-006 to 1.06638e-006
Heightened Def Con from 1.06638e-006 to 1.06638e-006
Heightened Def Con from 1.06638e-006 to 1.06638e-006
Heightened Def Con from 1.06638e-006 to 1.06638e-006
Heightened Def Con from 1.06638e-006 to 1.06638e-006
Heightened Def Con from 1.06638e-006 to 1.06638e-006
Heightened Def Con from 1.06639e-006 to 1.06639e-006
Heightened Def Con from 1.06639e-006 to 1.06639e-006
Heightened Def Con from 1.06639e-006 to 1.06639e-006
Heightened Def Con from 1.06639e-006 to 1.06639e-006
Heightened Def Con from 1.06639e-006 to 1.06639e-006
Heightened Def Con from 1.06639e-006 to 1.06639e-006
Heightened Def Con from 1.06639e-006 to 1.06639e-006
Heightened Def Con from 1.06639e-006 to 1.06739e-006
Heightened Def Con from 1.06739e-006 to 1.06739e-006
Heightened Def Con from 1.06739e-006 to 1.06739e-006
Heightened Def Con from 1.06739e-006 to 1.06739e-006
Heightened Def Con from 1.06739e-006 to 1.06739e-006
Heightened Def Con from 1.06739e-006 to 1.06739e-006
Heightened Def Con from 1.06739e-006 to 1.06739e-006
Heightened Def Con from 1.06739e-006 to 1.06739e-006
Heightened Def Con from 1.06739e-006 to 1.06739e-006
Heightened Def Con from 1.06739e-006 to 1.06739e-006
Heightened Def Con from 1.06739e-006 to 1.06752e-006
Heightened Def Con from 1.06752e-006 to 1.06752e-006
Heightened Def Con from 1.06752e-006 to 1.06752e-006
Heightened Def Con from 1.06752e-006 to 1.06752e-006
Heightened Def Con from 1.06752e-006 to 1.06752e-006
Heightened Def Con from 1.06752e-006 to 1.06752e-006
Heightened Def Con from 1.06752e-006 to 1.06752e-006
Heightened Def Con from 1.06752e-006 to 1.06752e-006
Heightened Def Con from 1.06752e-006 to 1.06752e-006
Heightened Def Con from 1.06752e-006 to 1.06752e-006
Heightened Def Con from 1.06752e-006 to 1.06754e-006
Heightened Def Con from 1.06754e-006 to 1.06755e-006
Heightened Def Con from 1.06755e-006 to 1.06755e-006
Heightened Def Con from 1.06755e-006 to 1.06755e-006
Heightened Def Con from 1.06755e-006 to 1.06755e-006
Heightened Def Con from 1.06755e-006 to 1.06755e-006
Heightened Def Con from 1.06755e-006 to 1.06755e-006
Heightened Def Con from 1.06756e-006 to 1.06756e-006
Heightened Def Con from 1.06756e-006 to 1.06756e-006
Heightened Def Con from 1.06756e-006 to 1.06756e-006
Heightened Def Con from 1.06756e-006 to 1.06756e-006
Heightened Def Con from 1.06756e-006 to 1.06756e-006
Heightened Def Con from 1.06756e-006 to 1.06756e-006
Heightened Def Con from 1.06756e-006 to 1.06756e-006
Heightened Def Con from 1.06756e-006 to 1.06756e-006
Heightened Def Con from 1.06756e-006 to 1.06756e-006
Heightened Def Con from 1.06756e-006 to 1.06756e-006
Heightened Def Con from 1.06756e-006 to 1.06756e-006
Heightened Def Con from 1.06756e-006 to 1.06756e-006
Heightened Def Con from 1.06756e-006 to 1.06758e-006
Heightened Def Con from 1.06758e-006 to 1.06758e-006
Heightened Def Con from 1.06758e-006 to 1.06758e-006
Heightened Def Con from 1.06758e-006 to 1.06758e-006
Heightened Def Con from 1.06758e-006 to 1.06759e-006
Heightened Def Con from 1.06759e-006 to 1.06759e-006
Heightened Def Con from 1.06759e-006 to 1.06759e-006
Heightened Def Con from 1.06759e-006 to 1.06759e-006
Heightened Def Con from 1.06759e-006 to 1.06759e-006
Heightened Def Con from 1.06759e-006 to 1.06759e-006
Heightened Def Con from 1.06759e-006 to 1.06759e-006
Heightened Def Con from 1.06759e-006 to 1.06759e-006
Heightened Def Con from 1.06759e-006 to 1.06759e-006
Heightened Def Con from 1.06759e-006 to 1.0676e-006
Heightened Def Con from 1.0676e-006 to 1.0676e-006
Heightened Def Con from 1.0676e-006 to 1.06761e-006
Heightened Def Con from 1.06761e-006 to 1.06761e-006
Heightened Def Con from 1.06761e-006 to 1.06761e-006
Heightened Def Con from 1.06761e-006 to 1.06761e-006
Heightened Def Con from 1.06761e-006 to 1.06761e-006
Heightened Def Con from 1.06761e-006 to 1.06761e-006
Heightened Def Con from 1.06761e-006 to 1.06761e-006
Heightened Def Con from 1.06761e-006 to 1.06761e-006
Heightened Def Con from 1.06761e-006 to 1.06761e-006
Heightened Def Con from 1.06761e-006 to 1.06761e-006
Heightened Def Con from 1.06761e-006 to 1.06761e-006
Heightened Def Con from 1.06761e-006 to 1.06761e-006
Heightened Def Con from 1.06761e-006 to 1.06761e-006
Heightened Def Con from 1.06762e-006 to 1.06762e-006
Heightened Def Con from 1.06762e-006 to 1.06762e-006
Heightened Def Con from 1.06762e-006 to 1.06762e-006
Heightened Def Con from 1.06762e-006 to 1.06762e-006
Heightened Def Con from 1.06762e-006 to 1.06762e-006
Heightened Def Con from 1.06762e-006 to 1.06762e-006
Heightened Def Con from 1.06762e-006 to 1.06762e-006
Heightened Def Con from 1.06762e-006 ++to 1.06774e-006
Heightened Def Con from 1.06774e-006 to 1.06774e-006
Heightened Def Con from 1.06774e-006 to 1.06774e-006
Heightened Def Con from 1.06774e-006 to 1.06774e-006
Heightened Def Con from 1.06774e-006 to 1.06774e-006
Heightened Def Con from 1.06774e-006 to 1.06774e-006
Heightened Def Con from 1.06774e-006 to 1.06774e-006
Heightened Def Con from 1.06774e-006 to 1.06774e-006
Heightened Def Con from 1.06774e-006 to 1.06774e-006
Heightened Def Con from 1.06774e-006 to 1.06874e-006
Heightened Def Con from 1.06874e-006 to 1.06974e-006
Heightened Def Con from 1.06974e-006 to 1.06974e-006
Heightened Def Con from 1.06974e-006 to 1.06974e-006
Heightened Def Con from 1.06974e-006 to 1.07074e-006
Heightened Def Con from 1.07074e-006 to 1.07074e-006
Heightened Def Con from 1.07074e-006 to 1.07074e-006
Heightened Def Con from 1.07074e-006 to 1.07074e-006
Heightened Def Con from 1.07074e-006 to 1.07074e-006
Heightened Def Con from 1.07074e-006 to 1.07074e-006
Heightened Def Con from 1.07074e-006 to 1.07074e-006
Heightened Def Con from 1.07074e-006 to 1.07074e-006
Heightened Def Con from 1.07074e-006 to 1.07074e-006
Heightened Def Con from 1.07074e-006 to 1.07074e-006
Heightened Def Con from 1.07074e-006 to 1.07074e-006
Heightened Def Con from 1.07074e-006 +to 1.07075e-006
Heightened Def Con from 1.07075e-006 to 1.07187e-006
Heightened Def Con from 1.07187e-006 to 1.07187e-006
Heightened Def Con from 1.07187e-006 to 1.0719e-006
Heightened Def Con from 1.0719e-006 to 1.0719e-006
Heightened Def Con from 1.0719e-006 to 1.0719e-006
Heightened Def Con from 1.0719e-006 to 1.0719e-006
Heightened Def Con from 1.0719e-006 to 1.0719e-006
Heightened Def Con from 1.0719e-006 to 1.07303e-006
Heightened Def Con from 1.07303e-006 to 1.07315e-006
Heightened Def Con from 1.07315e-006 to 1.07315e-006
Heightened Def Con from 1.07315e-006 to 1.07315e-006
Heightened Def Con from 1.07315e-006 to 1.07315e-006
Heightened Def Con from 1.07315e-006 to 1.07316e-006
Heightened Def Con from 1.07316e-006 to 1.07316e-006
Heightened Def Con from 1.07316e-006 to 1.07316e-006
Heightened Def Con from 1.07316e-006 to 1.07316e-006
Heightened Def Con from 1.07316e-006 to 1.07316e-006
Heightened Def Con from 1.07316e-006 to 1.07316e-006
Heightened Def Con from 1.07316e-006 to 1.07316e-006
Heightened Def Con from 1.07316e-006 to 1.07316e-006
Heightened Def Con from 1.07316e-006 to 1.07328e-006
Heightened Def Con from 1.07328e-006 to 1.07428e-006
Heightened Def Con from 1.07428e-006 to 1.07428e-006
Heightened Def Con from 1.07428e-006 to 1.07428e-006
Heightened Def Con from 1.07428e-006 to 1.07428e-006
Heightened Def Con from 1.07428e-006 to 1.0743e-006
Heightened Def Con from 1.0743e-006 to 1.0743e-006
Heightened Def Con from 1.0743e-006 to 1.07443e-006
Heightened Def Con from 1.07443e-006 to 1.07443e-006
Heightened Def Con from 1.07443e-006 to 1.07443e-006
Heightened Def Con from 1.07443e-006 to 1.07444e-006
Heightened Def Con from 1.07444e-006 to 1.07457e-006
Heightened Def Con from 1.07457e-006 to 1.07457e-006
Heightened Def Con from 1.07457e-006 to 1.07457e-006
Heightened Def Con from 1.07457e-006 to 1.07482e-006
Heightened Def Con from 1.07482e-006 to 1.07482e-006
Heightened Def Con from 1.07482e-006 to 1.07482e-006
Heightened Def Con from 1.07482e-006 to 1.07482e-006
Heightened Def Con from 1.07482e-006 to 1.07494e-006
Heightened Def Con from 1.07494e-006 to 1.07494e-006
Heightened Def Con from 1.07494e-006 to 1.07495e-006
Heightened Def Con from 1.07495e-006 to 1.07495e-006
Heightened Def Con from 1.07495e-006 to 1.07495e-006
Heightened Def Con from 1.07495e-006 to 1.07595e-006
Heightened Def Con from 1.07595e-006 to 1.07607e-006
Heightened Def Con from 1.07607e-006 to 1.07607e-006
Heightened Def Con from 1.07607e-006 to 1.07607e-006
Heightened Def Con from 1.07607e-006 to 1.07607e-006
Heightened Def Con from 1.07607e-006 to 1.07607e-006
Heightened Def Con from 1.07607e-006 to 1.07607e-006
Heightened Def Con from 1.07607e-006 to 1.07607e-006
Heightened Def Con from 1.07607e-006 to 1.07607e-006
Heightened Def Con from 1.07607e-006 to 1.07607e-006
Heightened Def Con from 1.07607e-006 to 1.07607e-006
Heightened Def Con from 1.07607e-006 to 1.07607e-006
Heightened Def Con from 1.07607e-006 to 1.07707e-006
Heightened Def Con from 1.07707e-006 to 1.07707e-006
Heightened Def Con from 1.07707e-006 to 1.07708e-006
Heightened Def Con from 1.07708e-006 to 1.07708e-006
Heightened Def Con from 1.07708e-006 to 1.07708e-006
Heightened Def Con from 1.07708e-006 to 1.07708e-006
Heightened Def Con from 1.07708e-006 to 1.07708e-006
Heightened Def Con from 1.07708e-006 to 1.07708e-006
Heightened Def Con from 1.07708e-006 to 1.07808e-006
Heightened Def Con from 1.07808e-006 to 1.07808e-006
Heightened Def Con from 1.07808e-006 to 1.07808e-006
Heightened Def Con from 1.07808e-006 to 1.07808e-006
Heightened Def Con from 1.07808e-006 to 1.07811e-006
Heightened Def Con from 1.07811e-006 to 1.07811e-006
Heightened Def Con from 1.07811e-006 to 1.07811e-006
Heightened Def Con from 1.07811e-006 to 1.07813e-006
Heightened Def Con from 1.07813e-006 to 1.07825e-006
Heightened Def Con from 1.07825e-006 to 1.07825e-006
Heightened Def Con from 1.07825e-006 to 1.07825e-006
Heightened Def Con from 1.07825e-006 to 1.07825e-006
Heightened Def Con from 1.07825e-006 to 1.07825e-006
Heightened Def Con from 1.07825e-006 to 1.07825e-006
Heightened Def Con from 1.07825e-006 to 1.07825e-006
Heightened Def Con from 1.07825e-006 to 1.07825e-006
Heightened Def Con from 1.07825e-006 to 1.07838e-006
Heightened Def Con from 1.07838e-006 to 1.07838e-006
Heightened Def Con from 1.07838e-006 +to 1.07838e-006
Heightened Def Con from 1.07838e-006 to 1.07838e-006
Heightened Def Con from 1.07838e-006 to 1.07838e-006
Heightened Def Con from 1.07838e-006 to 1.07838e-006
Heightened Def Con from 1.07838e-006 to 1.07838e-006
Heightened Def Con from 1.07838e-006 to 1.07863e-006
Heightened Def Con from 1.07863e-006 to 1.07863e-006
Heightened Def Con from 1.07863e-006 to 1.07863e-006
Heightened Def Con from 1.07863e-006 to 1.07865e-006
Heightened Def Con from 1.07865e-006 to 1.07977e-006
Heightened Def Con from 1.07977e-006 to 1.07977e-006
Heightened Def Con from 1.07977e-006 to 1.07977e-006
Heightened Def Con from 1.07977e-006 +to 1.07977e-006
Heightened Def Con from 1.07977e-006 to 1.08077e-006
Heightened Def Con from 1.08077e-006 to 1.08077e-006
Heightened Def Con from 1.08077e-006 to 1.08077e-006
Heightened Def Con from 1.08077e-006 to 1.08077e-006
Heightened Def Con from 1.08077e-006 to 1.0819e-006
Heightened Def Con from 1.0819e-006 to 1.0819e-006
Heightened Def Con from 1.0819e-006 to 1.0819e-006
Heightened Def Con from 1.0819e-006 +to 1.08202e-006
Heightened Def Con from 1.08202e-006 to 1.08202e-006
Heightened Def Con from 1.08202e-006 to 1.08202e-006
Heightened Def Con from 1.08202e-006 to 1.08203e-006
Heightened Def Con from 1.08203e-006 to 1.08203e-006
Heightened Def Con from 1.08203e-006 to 1.08203e-006
Heightened Def Con from 1.08203e-006 to 1.08228e-006
Heightened Def Con from 1.08228e-006 to 1.08241e-006
Heightened Def Con from 1.08241e-006 to 1.08241e-006
Heightened Def Con from 1.08241e-006 to 1.08241e-006
Heightened Def Con from 1.08241e-006 to 1.08241e-006
Heightened Def Con from 1.08241e-006 to 1.08241e-006
Heightened Def Con from 1.08241e-006 to 1.08241e-006
Heightened Def Con from 1.08241e-006 to 1.08241e-006
Heightened Def Con from 1.08241e-006 to 1.08341e-006
Heightened Def Con from 1.08341e-006 to 1.08341e-006
Heightened Def Con from 1.08341e-006 to 1.08341e-006
Heightened Def Con from 1.08341e-006 to 1.08341e-006
Heightened Def Con from 1.08341e-006 to 1.08341e-006
Heightened Def Con from 1.08341e-006 to 1.08341e-006
Heightened Def Con from 1.08341e-006 to 1.08341e-006
Heightened Def Con from 1.08341e-006 to 1.08341e-006
Heightened Def Con from 1.08341e-006 to 1.08341e-006
Heightened Def Con from 1.08341e-006 to 1.08342e-006
Heightened Def Con from 1.08342e-006 to 1.08342e-006
Heightened Def Con from 1.08342e-006 to 1.08354e-006
Heightened Def Con from 1.08354e-006 to 1.08354e-006
Heightened Def Con from 1.08354e-006 to 1.08356e-006
Heightened Def Con from 1.08356e-006 to 1.08359e-006
Heightened Def Con from 1.08359e-006 to 1.08359e-006
Heightened Def Con from 1.08359e-006 to 1.08359e-006
Heightened Def Con from 1.08359e-006 to 1.08359e-006
Heightened Def Con from 1.08359e-006 to 1.08359e-006
Heightened Def Con from 1.08359e-006 to 1.08361e-006
Heightened Def Con from 1.08361e-006 to 1.08361e-006
Heightened Def Con from 1.08361e-006 to 1.08361e-006
Heightened Def Con from 1.08361e-006 to 1.08361e-006
Heightened Def Con from 1.08361e-006 to 1.08361e-006
Heightened Def Con from 1.08361e-006 to 1.08361e-006
Heightened Def Con from 1.08361e-006 to 1.08361e-006
Heightened Def Con from 1.08361e-006 to 1.08361e-006
Heightened Def Con from 1.08361e-006 to 1.08361e-006
Heightened Def Con from 1.08361e-006 to 1.08362e-006
Heightened Def Con from 1.08362e-006 to 1.08462e-006
Heightened Def Con from 1.08462e-006 to 1.08464e-006
Heightened Def Con from 1.08464e-006 to 1.08564e-006
Heightened Def Con from 1.08564e-006 to 1.08577e-006
Heightened Def Con from 1.08577e-006 to 1.08577e-006
Heightened Def Con from 1.08577e-006 to 1.08589e-006
Heightened Def Con from 1.08589e-006 to 1.08602e-006
Heightened Def Con from 1.08602e-006 to 1.08602e-006
Heightened Def Con from 1.08602e-006 to 1.08702e-006
Heightened Def Con from 1.08702e-006 to 1.08702e-006
Heightened Def Con from 1.08702e-006 to 1.08702e-006
Heightened Def Con from 1.08702e-006 +to 1.08702e-006
Heightened Def Con from 1.08702e-006 to 1.08702e-006
Heightened Def Con from 1.08702e-006 to 1.08702e-006
Heightened Def Con from 1.08702e-006 to 1.08702e-006
Heightened Def Con from 1.08702e-006 to 1.08702e-006
Heightened Def Con from 1.08702e-006 to 1.08802e-006
Heightened Def Con from 1.08802e-006 to 1.08802e-006
Heightened Def Con from 1.08802e-006 to 1.08902e-006
Heightened Def Con from 1.08902e-006 to 1.08902e-006
Heightened Def Con from 1.08902e-006 to 1.08902e-006
Heightened Def Con from 1.08902e-006 to 1.08902e-006
Heightened Def Con from 1.08902e-006 to 1.08915e-006
Heightened Def Con from 1.08915e-006 to 1.08915e-006
Heightened Def Con from 1.08915e-006 +to 1.08915e-006
Heightened Def Con from 1.08915e-006 to 1.08915e-006
Heightened Def Con from 1.08915e-006 to 1.08915e-006
Heightened Def Con from 1.08915e-006 to 1.08915e-006
Heightened Def Con from 1.08915e-006 to 1.08928e-006
Heightened Def Con from 1.08928e-006 to 1.08928e-006
Heightened Def Con from 1.08928e-006 to 1.08928e-006
Heightened Def Con from 1.08928e-006 to 1.08928e-006
Heightened Def Con from 1.08928e-006 to 1.0904e-006
Heightened Def Con from 1.0904e-006 to 1.0914e-006
Heightened Def Con from 1.0914e-006 to 1.0914e-006
Heightened Def Con from 1.0914e-006 to 1.0914e-006
Heightened Def Con from 1.0914e-006 to 1.09141e-006
Heightened Def Con from 1.09141e-006 to 1.09153e-006
Heightened Def Con from 1.09153e-006 to 1.09153e-006
Heightened Def Con from 1.09153e-006 +to 1.09153e-006
Heightened Def Con from 1.09153e-006 to 1.09153e-006
Heightened Def Con from 1.09153e-006 to 1.09253e-006
Heightened Def Con from 1.09253e-006 to 1.09253e-006
Heightened Def Con from 1.09253e-006 to 1.09254e-006
Heightened Def Con from 1.09254e-006 to 1.09254e-006
Heightened Def Con from 1.09254e-006 to 1.09254e-006
Heightened Def Con from 1.09254e-006 to 1.09254e-006
Heightened Def Con from 1.09254e-006 to 1.09254e-006
Heightened Def Con from 1.09254e-006 to 1.09254e-006
Heightened Def Con from 1.09254e-006 to 1.09254e-006
Heightened Def Con from 1.09254e-006 to 1.09254e-006
Heightened Def Con from 1.09254e-006 to 1.09254e-006
Heightened Def Con from 1.09254e-006 to 1.09254e-006
Heightened Def Con from 1.09254e-006 to 1.09254e-006
Heightened Def Con from 1.09254e-006 to 1.09254e-006
Heightened Def Con from 1.09254e-006 to 1.09254e-006
Heightened Def Con from 1.09254e-006 to 1.09268e-006
Heightened Def Con from 1.09268e-006 to 1.09268e-006
Heightened Def Con from 1.09268e-006 to 1.0928e-006
Heightened Def Con from 1.0928e-006 to 1.09293e-006
Heightened Def Con from 1.09293e-006 to 1.09295e-006
Heightened Def Con from 1.09295e-006 to 1.09295e-006
Heightened Def Con from 1.09295e-006 to 1.09295e-006
Heightened Def Con from 1.09295e-006 to 1.09295e-006
Heightened Def Con from 1.09295e-006 to 1.09295e-006
Heightened Def Con from 1.09295e-006 to 1.09295e-006
Heightened Def Con from 1.09295e-006 to 1.09295e-006
Heightened Def Con from 1.09295e-006 to 1.09295e-006
Heightened Def Con from 1.09295e-006 to 1.09295e-006
Heightened Def Con from 1.09295e-006 to 1.09295e-006
Heightened Def Con from 1.09295e-006 to 1.09295e-006
Heightened Def Con from 1.09295e-006 to 1.09295e-006
Heightened Def Con from 1.09295e-006 to 1.09295e-006
Heightened Def Con from 1.09295e-006 to 1.09295e-006
Heightened Def Con from 1.09295e-006 to 1.09508e-006
Heightened Def Con from 1.09508e-006 to 1.09508e-006
Heightened Def Con from 1.09508e-006 to 1.09508e-006
Heightened Def Con from 1.09508e-006 to 1.09508e-006
Heightened Def Con from 1.09508e-006 to 1.09508e-006
Heightened Def Con from 1.09508e-006 to 1.09508e-006
Heightened Def Con from 1.09508e-006 to 1.09508e-006
Heightened Def Con from 1.09508e-006 to 1.09508e-006
Heightened Def Con from 1.09508e-006 to 1.09508e-006
Heightened Def Con from 1.09508e-006 to 1.09508e-006
Heightened Def Con from 1.09508e-006 to 1.09508e-006
Heightened Def Con from 1.09508e-006 to 1.09508e-006
Heightened Def Con from 1.09508e-006 to 1.09508e-006
Heightened Def Con from 1.09508e-006 to 1.09508e-006
Heightened Def Con from 1.09508e-006 to 1.09608e-006
Heightened Def Con from 1.09608e-006 to 1.09608e-006
Heightened Def Con from 1.09608e-006 to 1.09608e-006
Heightened Def Con from 1.09608e-006 to 1.09608e-006
Heightened Def Con from 1.09608e-006 to 1.09608e-006
Heightened Def Con from 1.09608e-006 to 1.09608e-006
Heightened Def Con from 1.09608e-006 to 1.09609e-006
Heightened Def Con from 1.09609e-006 to 1.09609e-006
Heightened Def Con from 1.09609e-006 to 1.09709e-006
Heightened Def Con from 1.09709e-006 to 1.09821e-006
Heightened Def Con from 1.09821e-006 to 1.09821e-006
Heightened Def Con from 1.09821e-006 to 1.09821e-006
Heightened Def Con from 1.09821e-006 to 1.09821e-006
Heightened Def Con from 1.09821e-006 to 1.09821e-006
Heightened Def Con from 1.09821e-006 to 1.09821e-006
Heightened Def Con from 1.09821e-006 to 1.09821e-006
Heightened Def Con from 1.09821e-006 to 1.09921e-006
Heightened Def Con from 1.09921e-006 to 1.09921e-006
Heightened Def Con from 1.09921e-006 to 1.09934e-006
Heightened Def Con from 1.09934e-006 to 1.09935e-006
[...]
Heightened Def Con from 1.32064e-006 to 1.32064e-006
Heightened Def Con from 1.32064e-006 to 1.32064e-006
Heightened Def Con from 1.32064e-006 to 1.32064e-006
Heightened Def Con from 1.32064e-006 to 1.32064e-006
Heightened Def Con from 1.32064e-006 to 1.32064e-006
Heightened Def Con from 1.32064e-006 to 1.32064e-006
Heightened Def Con from 1.32064e-006 to 1.32064e-006
Heightened Def Con from 1.32064e-006 to 1.32064e-006
Heightened Def Con from 1.32065e-006 to 1.32065e-006
Heightened Def Con from 1.32065e-006 to 1.32065e-006
Heightened Def Con from 1.32065e-006 to 1.32065e-006
Heightened Def Con from 1.32065e-006 to 1.32065e-006
Heightened Def Con from 1.32065e-006 to 1.32065e-006
Heightened Def Con from 1.32065e-006 to 1.32065e-006
Heightened Def Con from 1.32065e-006 to 1.32065e-006
Heightened Def Con from 1.32065e-006 to 1.32065e-006
Heightened Def Con from 1.32065e-006 to 1.32065e-006
Heightened Def Con from 1.32065e-006 to 1.32065e-006
Heightened Def Con from 1.32065e-006 to 1.32065e-006
Heightened Def Con from 1.32065e-006 to 1.32065e-006
Heightened Def Con from 1.32065e-006 to 1.32065e-006
Heightened Def Con from 1.32065e-006 to 1.32065e-006
Heightened Def Con from 1.32065e-006 to 1.32065e-006
Heightened Def Con from 1.32065e-006 to 1.32065e-006
Heightened Def Con from 1.32065e-006 to 1.32065e-006
Heightened Def Con from 1.32065e-006 to 1.32065e-006
Heightened Def Con from 1.32065e-006 to 1.32065e-006
Heightened Def Con from 1.32065e-006 to 1.32065e-006
Heightened Def Con from 1.32065e-006 to 1.32066e-006
Heightened Def Con from 1.32066e-006 to 1.32066e-006
Heightened Def Con from 1.32066e-006 to 1.32066e-006
Heightened Def Con from 1.32066e-006 to 1.32066e-006
Heightened Def Con from 1.32066e-006 to 1.32066e-006
Heightened Def Con from 1.32066e-006 to 1.32066e-006
Heightened Def Con from 1.32066e-006 to 1.32066e-006
Heightened Def Con from 1.32066e-006 to 1.32066e-006
Heightened Def Con from 1.32066e-006 to 1.32066e-006
Heightened Def Con from 1.32066e-006 to 1.32066e-006
Heightened Def Con from 1.32066e-006 to 1.32066e-006
Heightened Def Con from 1.32066e-006 to 1.32067e-006
Heightened Def Con from 1.32067e-006 to 1.32067e-006
Heightened Def Con from 1.32067e-006 to 1.32067e-006
Heightened Def Con from 1.32067e-006 to 1.32067e-006
Heightened Def Con from 1.32067e-006 to 1.32067e-006
Heightened Def Con from 1.32067e-006 to 1.32067e-006
Heightened Def Con from 1.32068e-006 to 1.32068e-006
Heightened Def Con from 1.32068e-006 to 1.32068e-006
Heightened Def Con from 1.32068e-006 to 1.32068e-006
Heightened Def Con from 1.32068e-006 to 1.32068e-006
Heightened Def Con from 1.32068e-006 to 1.32068e-006
Heightened Def Con from 1.32068e-006 to 1.32068e-006
Heightened Def Con from 1.32068e-006 to 1.32068e-006
Heightened Def Con from 1.32068e-006 to 1.32068e-006
Heightened Def Con from 1.32068e-006 to 1.32068e-006
Heightened Def Con from 1.32068e-006 to 1.32068e-006
Heightened Def Con from 1.32068e-006 to 1.32068e-006
Heightened Def Con from 1.32068e-006 to 1.32068e-006
Heightened Def Con from 1.32068e-006 to 1.32068e-006
Heightened Def Con from 1.32068e-006 to 1.32068e-006
Heightened Def Con from 1.32068e-006 to 1.32068e-006
Heightened Def Con from 1.32068e-006 to 1.32068e-006
Heightened Def Con from 1.32068e-006 to 1.32068e-006
Heightened Def Con from 1.32068e-006 to 1.32068e-006
Heightened Def Con from 1.32068e-006 to 1.32068e-006
Heightened Def Con from 1.32068e-006 to 1.32068e-006
Heightened Def Con from 1.32068e-006 to 1.32081e-006
Heightened Def Con from 1.32081e-006 to 1.32081e-006
Heightened Def Con from 1.32081e-006 to 1.32081e-006
Heightened Def Con from 1.32081e-006 +to 1.32081e-006
Heightened Def Con from 1.32081e-006 to 1.32081e-006
Heightened Def Con from 1.32081e-006 to 1.32081e-006
Heightened Def Con from 1.32081e-006 to 1.32081e-006
Heightened Def Con from 1.32081e-006 to 1.32081e-006
Heightened Def Con from 1.32081e-006 to 1.32081e-006
Heightened Def Con from 1.32081e-006 to 1.32081e-006
Heightened Def Con from 1.32081e-006 to 1.32081e-006
Heightened Def Con from 1.32081e-006 to 1.32081e-006
Heightened Def Con from 1.32081e-006 to 1.32081e-006
Heightened Def Con from 1.32081e-006 to 1.32081e-006
Heightened Def Con from 1.32081e-006 to 1.32081e-006
Heightened Def Con from 1.32081e-006 to 1.32081e-006
Heightened Def Con from 1.32081e-006 to 1.32081e-006
Heightened Def Con from 1.32082e-006 to 1.32082e-006
Heightened Def Con from 1.32082e-006 to 1.32082e-006
Heightened Def Con from 1.32082e-006 to 1.32082e-006
Heightened Def Con from 1.32082e-006 to 1.32082e-006
Heightened Def Con from 1.32082e-006 to 1.32082e-006
Heightened Def Con from 1.32082e-006 to 1.32082e-006
Heightened Def Con from 1.32082e-006 to 1.32082e-006
Heightened Def Con from 1.32082e-006 to 1.32082e-006
Heightened Def Con from 1.32082e-006 to 1.32082e-006
Heightened Def Con from 1.32082e-006 to 1.32082e-006
Heightened Def Con from 1.32082e-006 to 1.32082e-006
Heightened Def Con from 1.32082e-006 to 1.32082e-006
Heightened Def Con from 1.32082e-006 to 1.32094e-006
Heightened Def Con from 1.32094e-006 to 1.32094e-006
Heightened Def Con from 1.32094e-006 to 1.32094e-006
Heightened Def Con from 1.32094e-006 to 1.32094e-006
Heightened Def Con from 1.32094e-006 to 1.32094e-006
Heightened Def Con from 1.32094e-006 to 1.32094e-006
Heightened Def Con from 1.32094e-006 to 1.32094e-006
Heightened Def Con from 1.32094e-006 to 1.32094e-006
Heightened Def Con from 1.32094e-006 to 1.32094e-006
Heightened Def Con from 1.32095e-006 to 1.32095e-006
Heightened Def Con from 1.32095e-006 to 1.32095e-006
Heightened Def Con from 1.32095e-006 to 1.32095e-006
Heightened Def Con from 1.32095e-006 to 1.32095e-006
Heightened Def Con from 1.32095e-006 to 1.32095e-006
Heightened Def Con from 1.32095e-006 to 1.32095e-006
Heightened Def Con from 1.32095e-006 to 1.32095e-006
Heightened Def Con from 1.32095e-006 to 1.32095e-006
Heightened Def Con from 1.32095e-006 to 1.32095e-006
Heightened Def Con from 1.32095e-006 to 1.32095e-006
Heightened Def Con from 1.32095e-006 to 1.32095e-006
Heightened Def Con from 1.32095e-006 to 1.32095e-006
Heightened Def Con from 1.32095e-006 to 1.32095e-006
Heightened Def Con from 1.32095e-006 to 1.32095e-006
Heightened Def Con from 1.32095e-006 to 1.32095e-006
Heightened Def Con from 1.32095e-006 to 1.32095e-006
Heightened Def Con from 1.32095e-006 to 1.32095e-006
Heightened Def Con from 1.32095e-006 to 1.32095e-006
Heightened Def Con from 1.32095e-006 to 1.32095e-006
Heightened Def Con from 1.32095e-006 to 1.32095e-006
Heightened Def Con from 1.32095e-006 to 1.32095e-006
Heightened Def Con from 1.32095e-006 to 1.32095e-006
Heightened Def Con from 1.32095e-006 to 1.32095e-006
Heightened Def Con from 1.32095e-006 to 1.32095e-006
Heightened Def Con from 1.32095e-006 to 1.32095e-006
Heightened Def Con from 1.32095e-006 to 1.32095e-006
Heightened Def Con from 1.32095e-006 to 1.32095e-006
Heightened Def Con from 1.32095e-006 to 1.32095e-006
Heightened Def Con from 1.32095e-006 to 1.32095e-006
Heightened Def Con from 1.32095e-006 to 1.32096e-006
Heightened Def Con from 1.32096e-006 to 1.32096e-006
Heightened Def Con from 1.32096e-006 to 1.32096e-006
Heightened Def Con from 1.32096e-006 to 1.32096e-006
Heightened Def Con from 1.32096e-006 to 1.32096e-006
Heightened Def Con from 1.32096e-006 to 1.32096e-006
Heightened Def Con from 1.32096e-006 to 1.32096e-006
Heightened Def Con from 1.32096e-006 to 1.32096e-006
Heightened Def Con from 1.32096e-006 to 1.32097e-006
Heightened Def Con from 1.32097e-006 to 1.32097e-006
Heightened Def Con from 1.32097e-006 to 1.32097e-006
Heightened Def Con from 1.32097e-006 to 1.32097e-006
Heightened Def Con from 1.32097e-006 to 1.32097e-006
Heightened Def Con from 1.32097e-006 to 1.32097e-006
Heightened Def Con from 1.32097e-006 to 1.3211e-006
Heightened Def Con from 1.3211e-006 to 1.3211e-006
Heightened Def Con from 1.3211e-006 to 1.3211e-006
Heightened Def Con from 1.3211e-006 to 1.3211e-006
Heightened Def Con from 1.3211e-006 to 1.3211e-006
Heightened Def Con from 1.3211e-006 to 1.3211e-006
Heightened Def Con from 1.3211e-006 to 1.3211e-006
Heightened Def Con from 1.32111e-006 to 1.32111e-006
Heightened Def Con from 1.32111e-006 to 1.32111e-006
Heightened Def Con from 1.32111e-006 to 1.32111e-006
Heightened Def Con from 1.32111e-006 to 1.32111e-006
Heightened Def Con from 1.32111e-006 to 1.32111e-006
Heightened Def Con from 1.32111e-006 to 1.32111e-006
Heightened Def Con from 1.32111e-006 to 1.32111e-006
Heightened Def Con from 1.32111e-006 to 1.32111e-006
Heightened Def Con from 1.32111e-006 to 1.32311e-006
Heightened Def Con from 1.32311e-006 to 1.32311e-006
Heightened Def Con from 1.32311e-006 to 1.32311e-006
Heightened Def Con from 1.32311e-006 to 1.32311e-006
Heightened Def Con from 1.32311e-006 to 1.32311e-006
Heightened Def Con from 1.32311e-006 to 1.32323e-006
Heightened Def Con from 1.32323e-006 to 1.32323e-006
Heightened Def Con from 1.32324e-006 to 1.32324e-006
Heightened Def Con from 1.32324e-006 to 1.32324e-006
Heightened Def Con from 1.32324e-006 to 1.32324e-006
Heightened Def Con from 1.32324e-006 to 1.32324e-006
Heightened Def Con from 1.32324e-006 +to 1.32325e-006
Heightened Def Con from 1.32325e-006 to 1.32325e-006
Heightened Def Con from 1.32325e-006 to 1.32425e-006
Heightened Def Con from 1.32425e-006 to 1.32425e-006
Heightened Def Con from 1.32425e-006 +to 1.3245e-006
Heightened Def Con from 1.3245e-006 to 1.3245e-006
Heightened Def Con from 1.3245e-006 to 1.3245e-006
Heightened Def Con from 1.3245e-006 to 1.3245e-006
Heightened Def Con from 1.3245e-006 to 1.3245e-006
Heightened Def Con from 1.3245e-006 to 1.3245e-006
Heightened Def Con from 1.3245e-006 to 1.3245e-006
Heightened Def Con from 1.3245e-006 to 1.3245e-006
Heightened Def Con from 1.3245e-006 to 1.3245e-006
Heightened Def Con from 1.3245e-006 to 1.3245e-006
Heightened Def Con from 1.3245e-006 +to 1.32451e-006
Heightened Def Con from 1.32451e-006 to 1.32451e-006
Heightened Def Con from 1.32451e-006 to 1.32451e-006
Heightened Def Con from 1.32451e-006 to 1.32551e-006
Heightened Def Con from 1.32551e-006 to 1.32551e-006
Heightened Def Con from 1.32551e-006 to 1.32551e-006
Heightened Def Con from 1.32551e-006 to 1.32551e-006
Heightened Def Con from 1.32551e-006 to 1.32551e-006
Heightened Def Con from 1.32551e-006 to 1.32551e-006
Heightened Def Con from 1.32551e-006 to 1.32551e-006
Heightened Def Con from 1.32551e-006 to 1.32551e-006
Heightened Def Con from 1.32551e-006 to 1.32551e-006
Heightened Def Con from 1.32551e-006 to 1.32551e-006
Heightened Def Con from 1.32551e-006 to 1.32551e-006
Heightened Def Con from 1.32551e-006 to 1.32551e-006
Heightened Def Con from 1.32551e-006 to 1.32551e-006
Heightened Def Con from 1.32551e-006 to 1.32551e-006
Heightened Def Con from 1.32551e-006 to 1.32563e-006
Heightened Def Con from 1.32563e-006 to 1.32563e-006
Heightened Def Con from 1.32563e-006 to 1.32563e-006
Heightened Def Con from 1.32563e-006 to 1.32563e-006
Heightened Def Con from 1.32563e-006 to 1.32563e-006
Heightened Def Con from 1.32563e-006 to 1.32563e-006
Heightened Def Con from 1.32563e-006 to 1.32563e-006
Heightened Def Con from 1.32564e-006 to 1.32564e-006
Heightened Def Con from 1.32564e-006 to 1.32564e-006
Heightened Def Con from 1.32564e-006 to 1.32564e-006
Heightened Def Con from 1.32564e-006 to 1.32576e-006
Heightened Def Con from 1.32576e-006 to 1.32576e-006
Heightened Def Con from 1.32576e-006 to 1.32576e-006
Heightened Def Con from 1.32576e-006 to 1.32576e-006
Heightened Def Con from 1.32576e-006 to 1.32576e-006
Heightened Def Con from 1.32576e-006 to 1.32576e-006
Heightened Def Con from 1.32576e-006 to 1.32576e-006
Heightened Def Con from 1.32576e-006 to 1.32576e-006
Heightened Def Con from 1.32576e-006 to 1.32576e-006
Heightened Def Con from 1.32576e-006 to 1.32576e-006
Heightened Def Con from 1.32576e-006 to 1.32576e-006
Heightened Def Con from 1.32577e-006 to 1.32577e-006
Heightened Def Con from 1.32577e-006 to 1.32577e-006
Heightened Def Con from 1.32577e-006 to 1.32577e-006
Heightened Def Con from 1.32577e-006 to 1.32577e-006
Heightened Def Con from 1.32577e-006 to 1.32577e-006
Heightened Def Con from 1.32577e-006 to 1.32577e-006
Heightened Def Con from 1.32577e-006 to 1.32577e-006
Heightened Def Con from 1.32577e-006 to 1.32577e-006
Heightened Def Con from 1.32577e-006 to 1.32577e-006
Heightened Def Con from 1.32577e-006 to 1.32577e-006
Heightened Def Con from 1.32577e-006 to 1.32577e-006
Heightened Def Con from 1.32577e-006 to 1.32577e-006
Heightened Def Con from 1.32577e-006 to 1.32577e-006
Heightened Def Con from 1.32577e-006 to 1.32577e-006
Heightened Def Con from 1.32577e-006 to 1.32577e-006
Heightened Def Con from 1.32577e-006 to 1.32577e-006
Heightened Def Con from 1.32577e-006 to 1.32577e-006
Heightened Def Con from 1.32577e-006 to 1.32577e-006
Heightened Def Con from 1.32577e-006 to 1.32577e-006
Heightened Def Con from 1.32577e-006 to 1.32577e-006
Heightened Def Con from 1.32577e-006 to 1.32577e-006
Heightened Def Con from 1.32577e-006 to 1.32577e-006
Heightened Def Con from 1.32577e-006 to 1.32577e-006
Heightened Def Con from 1.32577e-006 to 1.32577e-006
Heightened Def Con from 1.32577e-006 to 1.32577e-006
Heightened Def Con from 1.32577e-006 to 1.32577e-006
Heightened Def Con from 1.32577e-006 to 1.32577e-006
Heightened Def Con from 1.32577e-006 to 1.3259e-006
Heightened Def Con from 1.3259e-006 to 1.3259e-006
Heightened Def Con from 1.3259e-006 to 1.3259e-006
Heightened Def Con from 1.3259e-006 to 1.3259e-006
Heightened Def Con from 1.3259e-006 to 1.3259e-006
Heightened Def Con from 1.3259e-006 to 1.3259e-006
Heightened Def Con from 1.3259e-006 to 1.3259e-006
Heightened Def Con from 1.3259e-006 to 1.3259e-006
Heightened Def Con from 1.3259e-006 to 1.3259e-006
Heightened Def Con from 1.3259e-006 to 1.3259e-006
Heightened Def Con from 1.3259e-006 to 1.3259e-006
Heightened Def Con from 1.3259e-006 to 1.3259e-006
Heightened Def Con from 1.3259e-006 to 1.3259e-006
Heightened Def Con from 1.3259e-006 to 1.3259e-006
Heightened Def Con from 1.3259e-006 to 1.3259e-006
Heightened Def Con from 1.3259e-006 to 1.32591e-006
Heightened Def Con from 1.32591e-006 to 1.32591e-006
Heightened Def Con from 1.32591e-006 to 1.32691e-006
Heightened Def Con from 1.32691e-006 to 1.32691e-006
Heightened Def Con from 1.32691e-006 to 1.32691e-006
Heightened Def Con from 1.32691e-006 to 1.32691e-006
Heightened Def Con from 1.32691e-006 +to 1.32691e-006
Heightened Def Con from 1.32691e-006 to 1.32691e-006
Heightened Def Con from 1.32691e-006 to 1.32691e-006
Heightened Def Con from 1.32691e-006 to 1.32691e-006
Heightened Def Con from 1.32691e-006 to 1.32691e-006
Heightened Def Con from 1.32691e-006 to 1.32691e-006
Heightened Def Con from 1.32691e-006 to 1.32691e-006
Heightened Def Con from 1.32691e-006 to 1.32691e-006
Heightened Def Con from 1.32691e-006 to 1.32691e-006
Heightened Def Con from 1.32691e-006 to 1.32691e-006
Heightened Def Con from 1.32691e-006 to 1.32691e-006
Heightened Def Con from 1.32691e-006 to 1.32704e-006
Heightened Def Con from 1.32704e-006 to 1.32704e-006
Heightened Def Con from 1.32704e-006 to 1.32704e-006
Heightened Def Con from 1.32704e-006 to 1.32704e-006
Heightened Def Con from 1.32704e-006 to 1.32704e-006
Heightened Def Con from 1.32704e-006 to 1.32704e-006
Heightened Def Con from 1.32704e-006 to 1.32704e-006
Heightened Def Con from 1.32704e-006 to 1.32716e-006
Heightened Def Con from 1.32716e-006 to 1.32716e-006
Heightened Def Con from 1.32716e-006 to 1.32717e-006
Heightened Def Con from 1.32717e-006 to 1.32717e-006
Heightened Def Con from 1.32717e-006 +to 1.32717e-006
Heightened Def Con from 1.32717e-006 to 1.32717e-006
Heightened Def Con from 1.32717e-006 to 1.32717e-006
Heightened Def Con from 1.32717e-006 to 1.32717e-006
Heightened Def Con from 1.32717e-006 to 1.32717e-006
Heightened Def Con from 1.32717e-006 to 1.32717e-006
Heightened Def Con from 1.32717e-006 to 1.32717e-006
Heightened Def Con from 1.32717e-006 to 1.32717e-006
Heightened Def Con from 1.32717e-006 to 1.32717e-006
Heightened Def Con from 1.32717e-006 to 1.32717e-006
Heightened Def Con from 1.32717e-006 to 1.32717e-006
Heightened Def Con from 1.32717e-006 to 1.32717e-006
Heightened Def Con from 1.32717e-006 to 1.32717e-006
Heightened Def Con from 1.32717e-006 to 1.32717e-006
Heightened Def Con from 1.32717e-006 to 1.32717e-006
Heightened Def Con from 1.32717e-006 to 1.3273e-006
Heightened Def Con from 1.3273e-006 to 1.3273e-006
Heightened Def Con from 1.3273e-006 to 1.3273e-006
Heightened Def Con from 1.3273e-006 to 1.3273e-006
Heightened Def Con from 1.3273e-006 to 1.3273e-006
Heightened Def Con from 1.3273e-006 to 1.3273e-006
Heightened Def Con from 1.3273e-006 to 1.32732e-006
Heightened Def Con from 1.32732e-006 to 1.32732e-006
Heightened Def Con from 1.32732e-006 to 1.32732e-006
Heightened Def Con from 1.32732e-006 to 1.32732e-006
Heightened Def Con from 1.32732e-006 to 1.32732e-006
Heightened Def Con from 1.32732e-006 to 1.32732e-006
Heightened Def Con from 1.32732e-006 to 1.32732e-006
Heightened Def Con from 1.32732e-006 to 1.32732e-006
Heightened Def Con from 1.32732e-006 to 1.32732e-006
Heightened Def Con from 1.32732e-006 to 1.32732e-006
Heightened Def Con from 1.32732e-006 to 1.32732e-006
Heightened Def Con from 1.32732e-006 to 1.32732e-006
Heightened Def Con from 1.32732e-006 to 1.32732e-006
Heightened Def Con from 1.32732e-006 +to 1.32733e-006
Heightened Def Con from 1.32733e-006 to 1.32733e-006
Heightened Def Con from 1.32733e-006 to 1.32733e-006
Heightened Def Con from 1.32733e-006 to 1.32733e-006
Heightened Def Con from 1.32733e-006 to 1.32733e-006
Heightened Def Con from 1.32733e-006 to 1.32733e-006
Heightened Def Con from 1.32733e-006 to 1.32733e-006
Heightened Def Con from 1.32733e-006 to 1.32734e-006
Heightened Def Con from 1.32734e-006 to 1.32734e-006
Heightened Def Con from 1.32734e-006 to 1.32734e-006
Heightened Def Con from 1.32734e-006 to 1.32734e-006
Heightened Def Con from 1.32734e-006 to 1.32734e-006
Heightened Def Con from 1.32734e-006 to 1.32734e-006
Heightened Def Con from 1.32734e-006 to 1.32734e-006
Heightened Def Con from 1.32734e-006 to 1.32734e-006
Heightened Def Con from 1.32734e-006 +to 1.32734e-006
Heightened Def Con from 1.32734e-006 to 1.32734e-006
Heightened Def Con from 1.32734e-006 to 1.32734e-006
Heightened Def Con from 1.32734e-006 to 1.32734e-006
Heightened Def Con from 1.32734e-006 to 1.32734e-006
Heightened Def Con from 1.32734e-006 to 1.32734e-006
Heightened Def Con from 1.32734e-006 to 1.32734e-006
Heightened Def Con from 1.32734e-006 to 1.32734e-006
Heightened Def Con from 1.32734e-006 to 1.32734e-006
Heightened Def Con from 1.32734e-006 to 1.32734e-006
Heightened Def Con from 1.32734e-006 to 1.32734e-006
Heightened Def Con from 1.32734e-006 to 1.32734e-006
Heightened Def Con from 1.32734e-006 to 1.32734e-006
Heightened Def Con from 1.32734e-006 to 1.32734e-006
Heightened Def Con from 1.32734e-006 to 1.32734e-006
Heightened Def Con from 1.32734e-006 to 1.32734e-006
Heightened Def Con from 1.32734e-006 to 1.32734e-006
Heightened Def Con from 1.32734e-006 to 1.32734e-006
Heightened Def Con from 1.32734e-006 to 1.32735e-006
Heightened Def Con from 1.32735e-006 to 1.32735e-006
Heightened Def Con from 1.32735e-006 to 1.32735e-006
Heightened Def Con from 1.32735e-006 to 1.32735e-006
Heightened Def Con from 1.32735e-006 to 1.32735e-006
Heightened Def Con from 1.32735e-006 to 1.32735e-006
Heightened Def Con from 1.32735e-006 to 1.32735e-006
Heightened Def Con from 1.32735e-006 to 1.32735e-006
Heightened Def Con from 1.32735e-006 to 1.32735e-006
Heightened Def Con from 1.32735e-006 to 1.32735e-006
Heightened Def Con from 1.32735e-006 to 1.32735e-006

Date: Thu Jun 15 15:23:25 2023
Total elapsed time: 10.905 seconds.

tnom = 27
temp = 27
method = modified trap
totiter = 1766219
traniter = 1763486
tranpoints = 225133
accept = 113323
rejected = 119103
matrix size = 36
fillins = 42
solver = Normal
Matrix Compiler1: off  1.2/0.5/[0.4]
Matrix Compiler2: 3.45 KB object code size  0.5/0.6/[0.5]

