Circuit: * C:\users\leonardo\Desktop\FSAE\inverter-simulation\main-attempt\inverter-spice-nmos.asc

WARNING: Node N014 is floating.

Instance "m1": Length shorter than recommended for a level 1 MOSFET.
Direct Newton iteration for .op point succeeded.

Date: Wed May 24 15:54:06 2023
Total elapsed time: 10.131 seconds.

tnom = 27
temp = 27
method = modified trap
totiter = 2525536
traniter = 2525511
tranpoints = 1208322
accept = 823405
rejected = 384917
matrix size = 19
fillins = 1
solver = Normal
Matrix Compiler1: 930 bytes object code size  0.5/0.3/[0.3]
Matrix Compiler2: off  [0.2]/0.3/0.3

