Circuit: * C:\users\leonardo\Desktop\FSAE\inverter-simulation\main-attempt\inverter-spice-nmos.asc

Limiting rise time of source v2 to 6.25e-006
Limiting fall time of source v2 to 6.25e-006
WARNING: Node N015 is floating.

Instance "m1": Length shorter than recommended for a level 1 MOSFET.
Direct Newton iteration for .op point succeeded.
Heightened Def Con from 1.00713e-009 to 4.00713e-009
Heightened Def Con from 7.5e-005 to 7.5004e-005
Heightened Def Con from 0.0002 to 0.000200004
Heightened Def Con from 0.000325 to 0.000325004
Heightened Def Con from 0.00045 to 0.00045

Date: Sun Jun 11 11:56:23 2023
Total elapsed time: 24.700 seconds.

tnom = 27
temp = 27
method = modified trap
totiter = 10621674
traniter = 10621649
tranpoints = 1770521
accept = 1327905
rejected = 442621
matrix size = 20
fillins = 17
solver = Normal
Matrix Compiler1: 1.64 KB object code size  0.6/0.4/[0.2]
Matrix Compiler2: off  [0.3]/0.4/0.3

