Circuit: * C:\users\leonardo\Desktop\FSAE\inverter-simulation\main-attempt\inverter-spice.asc

Direct Newton iteration for .op point succeeded.
Changing Tseed to 1e-010
Changing Tseed to 1e-012
Changing Tseed to 1e-009
Changing Tseed to 1e-013
Changing Tseed to 1e-008
Changing Tseed to 1e-014
Changing Tseed to 1e-007
Changing Tseed to 1e-015
Heightened Def Con from 1.00586e-015 +to 9.26182e-014
Heightened Def Con from 9.28268e-014 to 9.28864e-014
Heightened Def Con from 9.28864e-014 +to 1.27219e-013
Heightened Def Con from 1.27338e-013 to 1.27345e-013
Heightened Def Con from 1.2736e-013 to 1.31652e-013
Heightened Def Con from 1.31667e-013 to 1.31726e-013
Heightened Def Con from 1.31726e-013 to 1.31786e-013
Heightened Def Con from 1.31786e-013 to 1.31846e-013
Heightened Def Con from 1.31847e-013 to 1.43291e-013
Heightened Def Con from 1.64719e-013 to 2.56272e-013
Heightened Def Con from 3.20189e-013 +to 5.68144e-013
Heightened Def Con from 5.68144e-013 to 5.68145e-013
Heightened Def Con from 5.68145e-013 to 5.68324e-013
Heightened Def Con from 5.68324e-013 +to 5.98842e-013
Heightened Def Con from 5.98842e-013 to 6.02716e-013
Heightened Def Con from 6.02716e-013 +to 6.33234e-013
Heightened Def Con from 6.3368e-013 to 6.68013e-013
Heightened Def Con from 6.68014e-013 to 6.72305e-013
Heightened Def Con from 6.72547e-013 to 7.03124e-013
Heightened Def Con from 7.03243e-013 to 7.33762e-013
Heightened Def Con from 7.33762e-013 to 7.35192e-013
Heightened Def Con from 7.35192e-013 to 7.46636e-013
Heightened Def Con from 7.54983e-013 to 7.58805e-013
Heightened Def Con from 7.5882e-013 to 7.58821e-013
Heightened Def Con from 7.58822e-013 to 7.89817e-013
Heightened Def Con from 7.89817e-013 to 7.93639e-013
Heightened Def Con from 7.93639e-013 to 7.9364e-013
Heightened Def Con from 7.9364e-013 +to 8.24157e-013
Heightened Def Con from 8.24329e-013 to 8.2433e-013
Heightened Def Con from 8.2433e-013 to 8.28152e-013
Heightened Def Con from 8.28167e-013 +to 8.58684e-013
Heightened Def Con from 8.64433e-013 ++to 8.83983e-013
Heightened Def Con from 8.84044e-013 to 9.18377e-013
Heightened Def Con from 1.03671e-012 to 1.04059e-012
Heightened Def Con from 1.04059e-012 +to 1.10163e-012
Heightened Def Con from 1.10231e-012 +to 1.13283e-012
Heightened Def Con from 1.13284e-012 to 1.19388e-012
Heightened Def Con from 1.1986e-012 +to 1.26345e-012
Heightened Def Con from 1.26345e-012 to 1.26726e-012
Heightened Def Con from 1.26762e-012 +to 1.26816e-012
Heightened Def Con from 1.26816e-012 +to 1.27245e-012
Heightened Def Con from 1.27424e-012 to 1.33527e-012
Heightened Def Con from 1.38868e-012 to 1.44971e-012
Heightened Def Con from 1.51119e-012 to 1.54552e-012
Heightened Def Con from 1.55315e-012 +to 1.618e-012
Heightened Def Con from 1.67905e-012 to 1.71338e-012
Heightened Def Con from 1.72104e-012 to 1.75537e-012
Heightened Def Con from 1.75622e-012 to 1.79055e-012
Heightened Def Con from 1.79342e-012 +to 1.79389e-012
Heightened Def Con from 1.79389e-012 to 1.79395e-012
Heightened Def Con from 1.79395e-012 +to 1.82447e-012
Heightened Def Con from 1.8286e-012 +to 1.74579e-011
Heightened Def Con from 1.74674e-011 +to 1.75628e-011
Heightened Def Con from 1.75628e-011 to 1.75934e-011
Heightened Def Con from 1.75934e-011 +to 1.7601e-011
Heightened Def Con from 1.76147e-011 ++to 1.78703e-011
Heightened Def Con from 1.78703e-011 to 1.8145e-011
Heightened Def Con from 1.82131e-011 +to 1.82437e-011
Heightened Def Con from 1.82437e-011 to 1.82552e-011
Heightened Def Con from 1.82552e-011 to 1.82552e-011
Heightened Def Con from 1.82552e-011 to 1.83163e-011
Heightened Def Con from 1.83222e-011 +to 1.83527e-011
Heightened Def Con from 1.83527e-011 to 1.83871e-011
Heightened Def Con from 1.83871e-011 to 1.43391e-010
Heightened Def Con from 1.43399e-010 to 1.43433e-010
Heightened Def Con from 1.43442e-010 +to 1.43565e-010
Heightened Def Con from 1.43697e-010 to 1.43727e-010
Heightened Def Con from 1.43727e-010 to 1.43762e-010
Heightened Def Con from 1.43762e-010 to 1.43827e-010
Heightened Def Con from 1.43827e-010 to 1.43827e-010
Heightened Def Con from 1.43827e-010 +to 1.43838e-010
Heightened Def Con from 1.43838e-010 to 2.68869e-010
Heightened Def Con from 2.68869e-010 +to 2.68903e-010
Heightened Def Con from 2.68911e-010 to 2.68915e-010
Heightened Def Con from 2.68915e-010 to 2.68926e-010
Heightened Def Con from 2.68934e-010 to 2.69025e-010
Heightened Def Con from 2.69087e-010 +to 3.94087e-010
Heightened Def Con from 3.94088e-010 to 3.94149e-010
Heightened Def Con from 3.94224e-010 to 3.94235e-010
Heightened Def Con from 3.94248e-010 to 3.9434e-010
Heightened Def Con from 3.94411e-010 to 3.94502e-010
Heightened Def Con from 3.94566e-010 to 3.9481e-010
Heightened Def Con from 3.9481e-010 to 3.94844e-010
Heightened Def Con from 3.94846e-010 to 3.95094e-010
Heightened Def Con from 3.95102e-010 +to 5.20102e-010
Heightened Def Con from 5.20103e-010 +to 5.20167e-010
Heightened Def Con from 5.20262e-010 to 5.20536e-010
Heightened Def Con from 5.20598e-010 to 5.20632e-010
Heightened Def Con from 5.20724e-010 to 5.20785e-010
Heightened Def Con from 5.20829e-010 to 5.2084e-010
Heightened Def Con from 5.2084e-010 to 5.20901e-010
Heightened Def Con from 5.20901e-010 to 5.20935e-010
Heightened Def Con from 5.20935e-010 to 5.20997e-010
Heightened Def Con from 5.20997e-010 to 5.21001e-010
Heightened Def Con from 5.21002e-010 to 5.2101e-010
Heightened Def Con from 5.21029e-010 to 5.21033e-010
Heightened Def Con from 5.21036e-010 to 5.2104e-010
Heightened Def Con from 5.21114e-010 to 5.23068e-010
Heightened Def Con from 5.23068e-010 to 5.23129e-010
Heightened Def Con from 5.23134e-010 to 5.23134e-010
Heightened Def Con from 5.23134e-010 to 5.23138e-010
Heightened Def Con from 5.23138e-010 +to 5.23199e-010
Heightened Def Con from 5.23257e-010 to 5.23566e-010
Heightened Def Con from 5.23594e-010 +to 5.23655e-010
Heightened Def Con from 5.23655e-010 to 5.25612e-010
Heightened Def Con from 5.25627e-010 to 1.54125e-009
Heightened Def Con from 1.54126e-009 to 1.54126e-009
Heightened Def Con from 1.54126e-009 +to 1.54322e-009
Heightened Def Con from 1.54338e-009 to 1.54341e-009
Heightened Def Con from 1.54358e-009 to 1.54362e-009
Heightened Def Con from 1.54381e-009 to 1.54408e-009
Heightened Def Con from 1.54422e-009 to 1.54422e-009
Heightened Def Con from 1.54428e-009 to 1.54437e-009
Heightened Def Con from 1.54443e-009 to 1.54444e-009
Heightened Def Con from 1.54444e-009 to 1.54447e-009
Heightened Def Con from 1.54462e-009 to 1.54462e-009
Heightened Def Con from 1.54462e-009 to 1.54463e-009
Heightened Def Con from 1.54467e-009 to 1.54491e-009
Heightened Def Con from 1.54491e-009 to 1.545e-009
Heightened Def Con from 1.54525e-009 to 1.54531e-009
Heightened Def Con from 1.5454e-009 to 1.54543e-009
Heightened Def Con from 1.54545e-009 to 1.54548e-009
Heightened Def Con from 1.54549e-009 to 1.54552e-009
Heightened Def Con from 1.54563e-009 to 1.54567e-009
Heightened Def Con from 1.54589e-009 to 1.54614e-009
Heightened Def Con from 1.5463e-009 to 1.54631e-009
Heightened Def Con from 1.54636e-009 to 1.54637e-009
Heightened Def Con from 1.54637e-009 to 1.54643e-009
Heightened Def Con from 1.54643e-009 to 1.54643e-009
Heightened Def Con from 1.54643e-009 to 1.54644e-009
Heightened Def Con from 1.54652e-009 to 1.54655e-009
Heightened Def Con from 1.54655e-009 to 1.54661e-009
Heightened Def Con from 1.54668e-009 to 1.54672e-009
Heightened Def Con from 1.54675e-009 to 1.54678e-009
Heightened Def Con from 1.5468e-009 to 1.54681e-009
Heightened Def Con from 1.54716e-009 to 1.54717e-009
Heightened Def Con from 1.54721e-009 to 1.54722e-009
Heightened Def Con from 1.54724e-009 to 1.54727e-009
Heightened Def Con from 1.54727e-009 to 1.54731e-009
Heightened Def Con from 1.54733e-009 to 1.54734e-009
Heightened Def Con from 1.54734e-009 to 1.54737e-009
Heightened Def Con from 1.54737e-009 to 1.54737e-009
Heightened Def Con from 1.54738e-009 +to 1.56304e-009
Heightened Def Con from 1.56304e-009 to 1.56307e-009
Heightened Def Con from 1.56307e-009 to 1.56311e-009
Heightened Def Con from 1.56339e-009 to 1.56345e-009
Heightened Def Con from 1.56355e-009 to 1.56361e-009
Heightened Def Con from 1.56369e-009 to 1.56418e-009
Heightened Def Con from 1.56419e-009 to 1.56425e-009
Heightened Def Con from 1.5643e-009 +to 1.56446e-009
Heightened Def Con from 1.5647e-009 to 1.5648e-009
Heightened Def Con from 1.56508e-009 to 1.56508e-009
Heightened Def Con from 1.56508e-009 to 1.56514e-009
Heightened Def Con from 1.5653e-009 to 1.56536e-009
Heightened Def Con from 1.5654e-009 to 1.56544e-009
Heightened Def Con from 1.56555e-009 to 1.5658e-009
Heightened Def Con from 1.5658e-009 to 1.56586e-009
Heightened Def Con from 1.56587e-009 to 1.56593e-009
Heightened Def Con from 1.56629e-009 to 1.56657e-009
Heightened Def Con from 1.56703e-009 to 1.56706e-009
Heightened Def Con from 1.56708e-009 to 1.56714e-009
Heightened Def Con from 1.56715e-009 to 1.56721e-009
Heightened Def Con from 1.56721e-009 +to 1.56722e-009
Heightened Def Con from 1.56722e-009 to 1.56725e-009
Heightened Def Con from 1.56725e-009 to 1.58288e-009
Heightened Def Con from 1.58288e-009 to 1.58313e-009
Heightened Def Con from 1.5832e-009 +to 1.58322e-009
Heightened Def Con from 1.58323e-009 to 1.58324e-009
Heightened Def Con from 1.58324e-009 +to 1.58328e-009
Heightened Def Con from 1.58328e-009 to 1.58329e-009
Heightened Def Con from 1.58331e-009 to 1.58334e-009
Heightened Def Con from 1.58337e-009 to 1.70837e-009
Heightened Def Con from 1.70837e-009 +to 1.70837e-009
Heightened Def Con from 1.70837e-009 to 1.70865e-009
Heightened Def Con from 1.70865e-009 to 1.70871e-009
Heightened Def Con from 1.70896e-009 to 1.70899e-009
Heightened Def Con from 1.70908e-009 +to 1.70917e-009
Heightened Def Con from 1.70923e-009 to 1.70932e-009
Heightened Def Con from 1.70944e-009 to 1.70945e-009
Heightened Def Con from 1.70945e-009 +to 1.70952e-009
Heightened Def Con from 1.70969e-009 to 1.7097e-009
Heightened Def Con from 1.7097e-009 to 1.70972e-009
Heightened Def Con from 1.70972e-009 to 1.70973e-009
Heightened Def Con from 1.70975e-009 to 1.70975e-009
Heightened Def Con from 1.70975e-009 to 1.70982e-009
Heightened Def Con from 1.70982e-009 to 1.71177e-009
Heightened Def Con from 1.71177e-009 to 1.7118e-009
Heightened Def Con from 1.71184e-009 to 1.71184e-009
Heightened Def Con from 1.71184e-009 to 1.71188e-009
Heightened Def Con from 1.71188e-009 +to 1.71215e-009
Heightened Def Con from 1.71231e-009 to 1.71232e-009
Heightened Def Con from 1.71234e-009 +to 1.71237e-009
Heightened Def Con from 1.71243e-009 to 1.71249e-009
Heightened Def Con from 1.71249e-009 to 1.7125e-009
Heightened Def Con from 1.7125e-009 to 1.71257e-009
Heightened Def Con from 1.7126e-009 +to 1.71266e-009
Heightened Def Con from 1.71266e-009 to 1.71268e-009
Heightened Def Con from 1.7127e-009 +to 1.71273e-009
Heightened Def Con from 1.71282e-009 to 1.71283e-009
Heightened Def Con from 1.71283e-009 +to 1.71289e-009
Heightened Def Con from 1.71296e-009 to 1.71302e-009
Heightened Def Con from 1.71302e-009 to 1.71302e-009
Heightened Def Con from 1.71302e-009 to 1.71305e-009
Heightened Def Con from 1.71306e-009 to 1.71306e-009
Heightened Def Con from 1.71306e-009 to 1.71307e-009
Heightened Def Con from 1.71307e-009 to 1.7131e-009
Heightened Def Con from 1.71315e-009 to 1.7288e-009
Heightened Def Con from 1.72913e-009 to 1.72938e-009
Heightened Def Con from 1.72938e-009 to 1.72939e-009
Heightened Def Con from 1.72939e-009 to 1.73134e-009
Heightened Def Con from 1.73134e-009 to 1.74697e-009
Heightened Def Con from 1.74697e-009 +to 1.74698e-009
Heightened Def Con from 1.74721e-009 to 1.74749e-009
Heightened Def Con from 1.74754e-009 +to 1.74764e-009
Heightened Def Con from 1.74764e-009 to 1.74764e-009
Heightened Def Con from 1.74764e-009 +to 1.74764e-009
Heightened Def Con from 1.74764e-009 +to 1.74764e-009
Heightened Def Con from 1.74764e-009 to 2.74765e-009
Heightened Def Con from 2.74766e-009 to 2.74766e-009
Heightened Def Con from 2.74766e-009 +to 2.74766e-009
Heightened Def Con from 2.74766e-009 to 2.74772e-009
Heightened Def Con from 2.74772e-009 to 2.74772e-009
Heightened Def Con from 2.74772e-009 +to 2.74773e-009
Heightened Def Con from 2.74773e-009 to 2.74779e-009
Heightened Def Con from 2.74781e-009 to 2.74787e-009
Heightened Def Con from 2.74793e-009 +to 2.74793e-009
Heightened Def Con from 2.74793e-009 +to 2.74794e-009
Heightened Def Con from 2.74794e-009 ++to 2.74844e-009
Heightened Def Con from 2.74851e-009 to 2.74851e-009
Heightened Def Con from 2.74851e-009 to 2.74852e-009
Heightened Def Con from 2.74852e-009 to 2.74858e-009
Heightened Def Con from 2.74864e-009 to 2.74864e-009
Heightened Def Con from 2.74864e-009 to 2.74865e-009
Heightened Def Con from 2.74874e-009 +to 2.74877e-009
Heightened Def Con from 2.74879e-009 +to 2.7488e-009
Heightened Def Con from 2.74882e-009 to 2.74907e-009
Heightened Def Con from 2.74907e-009 to 2.74913e-009
Heightened Def Con from 2.74919e-009 to 2.74919e-009
Heightened Def Con from 2.74963e-009 to 2.7497e-009
Heightened Def Con from 2.74988e-009 +to 2.7504e-009
Heightened Def Con from 2.75058e-009 to 2.75061e-009
Heightened Def Con from 2.75061e-009 +to 2.75067e-009
Heightened Def Con from 2.75068e-009 to 2.75069e-009
Heightened Def Con from 2.75074e-009 to 2.75077e-009
Heightened Def Con from 2.75078e-009 to 2.75078e-009
Heightened Def Con from 2.75078e-009 to 2.75078e-009
Heightened Def Con from 2.75078e-009 +to 2.75079e-009
Heightened Def Con from 2.75079e-009 +to 2.75085e-009
Heightened Def Con from 2.75085e-009 +to 2.75137e-009
Heightened Def Con from 2.75145e-009 +to 2.75148e-009
Heightened Def Con from 2.75152e-009 to 2.75158e-009
Heightened Def Con from 2.75162e-009 to 2.75168e-009
Heightened Def Con from 2.75168e-009 to 2.75174e-009
Heightened Def Con from 2.75201e-009 to 2.75229e-009
Heightened Def Con from 2.75243e-009 to 2.75243e-009
Heightened Def Con from 2.75243e-009 to 2.75244e-009
Heightened Def Con from 2.75244e-009 to 2.7525e-009
Heightened Def Con from 2.7525e-009 to 2.75256e-009
Heightened Def Con from 2.75268e-009 to 2.75274e-009
Heightened Def Con from 2.75292e-009 to 2.75295e-009
Heightened Def Con from 2.75295e-009 to 2.75301e-009
Heightened Def Con from 2.75322e-009 to 2.75328e-009
Heightened Def Con from 2.75328e-009 to 2.75335e-009
Heightened Def Con from 2.75363e-009 to 2.75366e-009
Heightened Def Con from 2.75367e-009 to 2.75368e-009
Heightened Def Con from 2.75368e-009 to 2.75374e-009
Heightened Def Con from 2.75376e-009 to 2.75376e-009
Heightened Def Con from 2.75377e-009 to 2.75378e-009
Heightened Def Con from 2.75382e-009 +to 2.75386e-009
Heightened Def Con from 2.75386e-009 to 2.75386e-009
Heightened Def Con from 2.75386e-009 to 2.7539e-009
Heightened Def Con from 2.75399e-009 to 2.754e-009
Heightened Def Con from 2.754e-009 to 2.75406e-009
Heightened Def Con from 2.75406e-009 to 2.7541e-009
Heightened Def Con from 2.75415e-009 to 2.75415e-009
Heightened Def Con from 2.75415e-009 to 2.75416e-009
Heightened Def Con from 2.75417e-009 to 2.7542e-009
Heightened Def Con from 2.7542e-009 to 2.75421e-009
Heightened Def Con from 2.75421e-009 to 2.75425e-009
Heightened Def Con from 2.75427e-009 to 2.75433e-009
Heightened Def Con from 2.75434e-009 to 2.75435e-009
Heightened Def Con from 2.75436e-009 to 2.75437e-009
Heightened Def Con from 2.75437e-009 to 2.75437e-009
Heightened Def Con from 2.75437e-009 to 2.75437e-009
Heightened Def Con from 2.75437e-009 to 2.75443e-009
Heightened Def Con from 2.75449e-009 to 2.75449e-009
Heightened Def Con from 2.75449e-009 +to 2.75449e-009
Heightened Def Con from 2.75449e-009 to 2.7545e-009
Heightened Def Con from 2.75454e-009 to 2.75454e-009
Heightened Def Con from 2.75454e-009 +to 2.75457e-009
Heightened Def Con from 2.75468e-009 +to 2.75691e-009
Heightened Def Con from 2.75691e-009 to 2.75692e-009
Heightened Def Con from 2.75699e-009 to 2.75699e-009
Heightened Def Con from 2.75699e-009 to 2.757e-009
Heightened Def Con from 2.75701e-009 to 2.75702e-009
Heightened Def Con from 2.75706e-009 to 2.75707e-009
Heightened Def Con from 2.75707e-009 to 2.75711e-009
Heightened Def Con from 2.75714e-009 +to 2.7572e-009
Heightened Def Con from 2.75725e-009 to 2.75731e-009
Heightened Def Con from 2.75775e-009 to 2.75781e-009
Heightened Def Con from 2.7579e-009 to 2.75815e-009
Heightened Def Con from 2.75828e-009 to 2.75834e-009
Heightened Def Con from 2.75834e-009 to 2.75838e-009
Heightened Def Con from 2.75838e-009 to 2.75841e-009
Heightened Def Con from 2.75841e-009 to 2.75845e-009
Heightened Def Con from 2.75856e-009 to 2.75862e-009
Heightened Def Con from 2.75868e-009 to 2.75869e-009
Heightened Def Con from 2.75887e-009 to 2.7589e-009
Heightened Def Con from 2.75893e-009 +to 2.75894e-009
Heightened Def Con from 2.75894e-009 to 2.759e-009
Heightened Def Con from 2.75914e-009 +to 2.75914e-009
Heightened Def Con from 2.75914e-009 to 2.75921e-009
Heightened Def Con from 2.75937e-009 to 3.75937e-009
Heightened Def Con from 3.75937e-009 to 3.75937e-009
Heightened Def Con from 3.75937e-009 +to 3.75965e-009
Heightened Def Con from 3.7597e-009 to 3.7597e-009
Heightened Def Con from 3.7597e-009 to 3.75971e-009
Heightened Def Con from 3.75971e-009 to 3.75977e-009
Heightened Def Con from 3.75977e-009 to 3.7598e-009
Heightened Def Con from 3.75983e-009 to 3.75984e-009
Heightened Def Con from 3.75984e-009 +to 3.75986e-009
Heightened Def Con from 3.75986e-009 +to 3.75987e-009
Heightened Def Con from 3.75989e-009 to 3.75989e-009
Heightened Def Con from 3.75989e-009 to 3.75989e-009
Heightened Def Con from 3.75989e-009 +to 3.75995e-009
Heightened Def Con from 3.76002e-009 to 3.76003e-009
Heightened Def Con from 3.76005e-009 to 3.76032e-009
Heightened Def Con from 3.76038e-009 +to 3.76041e-009
Heightened Def Con from 3.76052e-009 to 3.76052e-009
Heightened Def Con from 3.76055e-009 to 3.76055e-009
Heightened Def Con from 3.76057e-009 to 3.76057e-009
Heightened Def Con from 3.76057e-009 to 3.7606e-009
Heightened Def Con from 3.7606e-009 to 3.7606e-009
Heightened Def Con from 3.7606e-009 to 3.76061e-009
Heightened Def Con from 3.76063e-009 to 3.76064e-009
Heightened Def Con from 3.76064e-009 to 3.77822e-009
Heightened Def Con from 3.77829e-009 to 3.77832e-009
Heightened Def Con from 3.77839e-009 to 3.7784e-009
Heightened Def Con from 3.77843e-009 to 3.77871e-009
Heightened Def Con from 3.77871e-009 to 3.79824e-009
Heightened Def Con from 3.79824e-009 to 3.79828e-009
Heightened Def Con from 3.79828e-009 to 3.79829e-009
Heightened Def Con from 3.79829e-009 +to 3.7983e-009
Heightened Def Con from 3.79831e-009 to 3.79831e-009
Heightened Def Con from 3.79831e-009 to 3.79858e-009
Heightened Def Con from 3.79858e-009 to 3.79858e-009
Heightened Def Con from 3.79858e-009 to 3.79859e-009
Heightened Def Con from 3.79859e-009 +to 3.79859e-009
Heightened Def Con from 3.7986e-009 to 3.79861e-009
Heightened Def Con from 3.79865e-009 to 3.79866e-009
Heightened Def Con from 3.7987e-009 to 3.79873e-009
Heightened Def Con from 3.79876e-009 to 3.79882e-009
Heightened Def Con from 3.79884e-009 to 3.79884e-009
Heightened Def Con from 3.79884e-009 to 3.79885e-009
Heightened Def Con from 3.79885e-009 to 3.79889e-009
Heightened Def Con from 3.79895e-009 to 3.79901e-009
Heightened Def Con from 3.79908e-009 to 3.79909e-009
Heightened Def Con from 3.79911e-009 to 3.79912e-009
Heightened Def Con from 3.79914e-009 to 3.80305e-009
Heightened Def Con from 3.80305e-009 +to 3.80308e-009
Heightened Def Con from 3.80308e-009 to 3.80315e-009
Heightened Def Con from 3.80317e-009 to 3.80323e-009
Heightened Def Con from 3.80323e-009 +to 3.80329e-009
Heightened Def Con from 3.80329e-009 to 3.80338e-009
Heightened Def Con from 3.80351e-009 to 3.80351e-009
Heightened Def Con from 3.80351e-009 to 3.80352e-009
Heightened Def Con from 3.80353e-009 to 3.80356e-009
Heightened Def Con from 3.80359e-009 to 3.80362e-009
Heightened Def Con from 3.80368e-009 to 3.80372e-009
Heightened Def Con from 3.80372e-009 to 3.80396e-009
Heightened Def Con from 3.8041e-009 to 3.80413e-009
Heightened Def Con from 3.80414e-009 to 3.80414e-009
Heightened Def Con from 3.80414e-009 +to 3.80418e-009
Heightened Def Con from 3.80419e-009 to 3.80423e-009
Heightened Def Con from 3.80441e-009 to 3.80447e-009
Heightened Def Con from 3.80454e-009 to 3.80455e-009
Heightened Def Con from 3.8046e-009 to 3.8046e-009
Heightened Def Con from 3.80461e-009 to 3.80462e-009
Heightened Def Con from 3.80464e-009 to 3.80467e-009
Heightened Def Con from 3.80467e-009 to 3.80468e-009
Heightened Def Con from 3.80469e-009 to 3.80475e-009
Heightened Def Con from 3.80475e-009 to 3.80478e-009
Heightened Def Con from 3.80486e-009 to 3.8049e-009
Heightened Def Con from 3.80499e-009 to 3.80505e-009
Heightened Def Con from 3.80505e-009 to 3.8053e-009
Heightened Def Con from 3.8053e-009 to 3.8053e-009
Heightened Def Con from 3.8053e-009 to 3.80531e-009
Heightened Def Con from 3.80532e-009 to 3.80535e-009
Heightened Def Con from 3.80539e-009 to 3.82105e-009
Heightened Def Con from 3.82111e-009 to 3.82114e-009
Heightened Def Con from 3.82144e-009 to 3.82172e-009
Heightened Def Con from 3.82172e-009 to 3.82175e-009
Heightened Def Con from 3.82175e-009 to 3.82179e-009
Heightened Def Con from 3.8218e-009 to 3.82189e-009
Heightened Def Con from 3.82196e-009 to 3.82205e-009
Heightened Def Con from 3.82216e-009 to 3.82217e-009
Heightened Def Con from 3.82218e-009 to 3.82224e-009
Heightened Def Con from 3.82231e-009 to 3.82234e-009
Heightened Def Con from 3.82237e-009 to 3.8224e-009
Heightened Def Con from 3.82263e-009 to 3.82291e-009
Heightened Def Con from 3.82302e-009 to 3.82306e-009
Heightened Def Con from 3.82311e-009 to 3.82314e-009
Heightened Def Con from 3.82321e-009 to 3.82327e-009
Heightened Def Con from 3.82334e-009 to 3.8234e-009
Heightened Def Con from 3.82345e-009 to 3.82351e-009
Heightened Def Con from 3.82355e-009 to 3.82356e-009
Heightened Def Con from 3.82356e-009 to 3.82365e-009
Heightened Def Con from 3.8237e-009 to 3.82371e-009
Heightened Def Con from 3.82371e-009 to 3.82377e-009
Heightened Def Con from 3.82377e-009 to 3.82383e-009
Heightened Def Con from 3.82388e-009 to 3.82394e-009
Heightened Def Con from 3.82396e-009 to 3.82402e-009
Heightened Def Con from 3.8241e-009 to 3.82417e-009
Heightened Def Con from 3.82433e-009 to 3.82461e-009
Heightened Def Con from 3.82468e-009 to 3.82471e-009
Heightened Def Con from 3.82486e-009 to 3.82492e-009
Heightened Def Con from 3.82496e-009 to 3.82695e-009
Heightened Def Con from 3.82713e-009 to 3.82722e-009
Heightened Def Con from 3.82735e-009 to 3.82763e-009
Heightened Def Con from 3.82764e-009 +to 3.82768e-009
Heightened Def Con from 3.82768e-009 to 3.82771e-009
Heightened Def Con from 3.82799e-009 to 3.82827e-009
Heightened Def Con from 3.82843e-009 to 3.84406e-009
Heightened Def Con from 3.84406e-009 to 3.84406e-009
Heightened Def Con from 3.84406e-009 +to 3.84437e-009
Heightened Def Con from 3.84437e-009 to 3.84464e-009
Heightened Def Con from 3.84471e-009 to 3.84471e-009
Heightened Def Con from 3.84471e-009 +to 3.84475e-009
Heightened Def Con from 3.84475e-009 to 3.84479e-009
Heightened Def Con from 3.84479e-009 to 3.84482e-009
Heightened Def Con from 3.84483e-009 to 3.84489e-009
Heightened Def Con from 3.84489e-009 to 3.8449e-009
Heightened Def Con from 3.84491e-009 to 3.84497e-009
Heightened Def Con from 3.84502e-009 to 3.84503e-009
Heightened Def Con from 3.84504e-009 to 3.84505e-009
Heightened Def Con from 3.84512e-009 to 3.84512e-009
Heightened Def Con from 3.84513e-009 to 3.84519e-009
Heightened Def Con from 3.84533e-009 to 3.84534e-009
Heightened Def Con from 3.84538e-009 to 3.84538e-009
Heightened Def Con from 3.8454e-009 to 3.8454e-009
Heightened Def Con from 3.8454e-009 to 3.84542e-009
Heightened Def Con from 3.84545e-009 to 3.84551e-009
Heightened Def Con from 3.84553e-009 to 3.84557e-009
Heightened Def Con from 3.84558e-009 to 3.84564e-009
Heightened Def Con from 3.84572e-009 to 3.84575e-009
Heightened Def Con from 3.84579e-009 to 3.8458e-009
Heightened Def Con from 3.84582e-009 to 3.84582e-009
Heightened Def Con from 3.84583e-009 to 3.84586e-009
Heightened Def Con from 3.84587e-009 to 3.84593e-009
Heightened Def Con from 3.84599e-009 to 3.846e-009
Heightened Def Con from 3.84608e-009 to 3.84633e-009
Heightened Def Con from 3.84641e-009 to 3.84644e-009
Heightened Def Con from 3.84651e-009 to 3.84651e-009
Heightened Def Con from 3.84656e-009 +to 3.84681e-009
Heightened Def Con from 3.84697e-009 to 4.09698e-009
Heightened Def Con from 4.09698e-009 to 4.09701e-009
Heightened Def Con from 4.09706e-009 to 4.09715e-009
Heightened Def Con from 4.09723e-009 to 4.09726e-009
Heightened Def Con from 4.09742e-009 to 4.09748e-009
Heightened Def Con from 4.09762e-009 to 4.09765e-009
Heightened Def Con from 4.09773e-009 to 4.09773e-009
Heightened Def Con from 4.09773e-009 to 4.09779e-009
Heightened Def Con from 4.09779e-009 to 4.09786e-009
Heightened Def Con from 4.09822e-009 to 4.09828e-009
Heightened Def Con from 4.09832e-009 to 4.09835e-009
Heightened Def Con from 4.09836e-009 to 4.09842e-009
Heightened Def Con from 4.09843e-009 to 4.09844e-009
Heightened Def Con from 4.09844e-009 to 4.09845e-009
Heightened Def Con from 4.09845e-009 to 4.09848e-009
Heightened Def Con from 4.09849e-009 to 4.09849e-009
Heightened Def Con from 4.09849e-009 to 4.0985e-009
Heightened Def Con from 4.09851e-009 to 4.09854e-009
Heightened Def Con from 4.09854e-009 to 4.09854e-009
Heightened Def Con from 4.09854e-009 to 4.09855e-009
Heightened Def Con from 4.09856e-009 to 4.09856e-009
Heightened Def Con from 4.09859e-009 to 4.09859e-009
Heightened Def Con from 4.0986e-009 +to 4.0986e-009
Heightened Def Con from 4.0986e-009 to 4.0986e-009
Heightened Def Con from 4.0986e-009 to 4.09866e-009
Heightened Def Con from 4.09866e-009 to 4.09869e-009
Heightened Def Con from 4.0987e-009 to 4.09876e-009
Heightened Def Con from 4.09876e-009 to 4.09889e-009
Heightened Def Con from 4.0989e-009 to 4.09894e-009
Heightened Def Con from 4.09894e-009 to 4.09895e-009
Heightened Def Con from 4.099e-009 to 4.09952e-009
Heightened Def Con from 4.09965e-009 +to 4.22489e-009
Heightened Def Con from 4.22491e-009 to 4.225e-009
Heightened Def Con from 4.22525e-009 to 4.22574e-009
Heightened Def Con from 4.22574e-009 to 4.22575e-009
Heightened Def Con from 4.22575e-009 to 4.22575e-009
Heightened Def Con from 4.22575e-009 to 4.2277e-009
Heightened Def Con from 4.2277e-009 +to 4.22771e-009
Heightened Def Con from 4.22771e-009 to 4.22771e-009
Heightened Def Con from 4.22771e-009 to 4.22771e-009
Heightened Def Con from 4.22771e-009 to 4.22774e-009
Heightened Def Con from 4.22776e-009 to 4.22782e-009
Heightened Def Con from 4.22821e-009 to 4.22821e-009
Heightened Def Con from 4.22822e-009 to 4.22823e-009
Heightened Def Con from 4.22823e-009 to 4.22829e-009
Heightened Def Con from 4.22836e-009 to 4.22837e-009
Heightened Def Con from 4.22837e-009 to 4.22841e-009
Heightened Def Con from 4.22841e-009 to 4.22847e-009
Heightened Def Con from 4.22863e-009 to 4.22866e-009
Heightened Def Con from 4.22878e-009 to 4.22884e-009
Heightened Def Con from 4.22894e-009 to 4.22897e-009
Heightened Def Con from 4.22897e-009 +to 4.35401e-009
Heightened Def Con from 4.35401e-009 to 4.47901e-009
Heightened Def Con from 4.47901e-009 +to 4.47907e-009
Heightened Def Con from 4.47908e-009 to 4.47914e-009
Heightened Def Con from 4.47914e-009 to 4.4792e-009
Heightened Def Con from 4.47924e-009 +to 4.47925e-009
Heightened Def Con from 4.47929e-009 +to 4.47935e-009
Heightened Def Con from 4.4795e-009 +to 4.47953e-009
Heightened Def Con from 4.47953e-009 to 4.47956e-009
Heightened Def Con from 4.47957e-009 to 4.47957e-009
Heightened Def Con from 4.47957e-009 to 4.47964e-009
Heightened Def Con from 4.47964e-009 to 4.4797e-009
Heightened Def Con from 4.4797e-009 +to 4.47973e-009
Heightened Def Con from 4.47974e-009 to 4.4798e-009
Heightened Def Con from 4.47993e-009 +to 4.48018e-009
Heightened Def Con from 4.48031e-009 ++to 4.48082e-009
Heightened Def Con from 4.48092e-009 to 4.48093e-009
Heightened Def Con from 4.48094e-009 to 4.481e-009
Heightened Def Con from 4.48109e-009 to 4.4811e-009
Heightened Def Con from 4.4811e-009 to 4.48137e-009
Heightened Def Con from 4.48141e-009 +to 4.48144e-009
Heightened Def Con from 4.482e-009 +to 4.48203e-009
Heightened Def Con from 4.4821e-009 to 4.48216e-009
Heightened Def Con from 4.48221e-009 to 4.48249e-009
Heightened Def Con from 4.48262e-009 to 4.48268e-009
Heightened Def Con from 4.48268e-009 to 4.48274e-009
Heightened Def Con from 4.48274e-009 to 4.48274e-009
Heightened Def Con from 4.48274e-009 to 4.4828e-009
Heightened Def Con from 4.48281e-009 to 4.48287e-009
Heightened Def Con from 4.48297e-009 to 4.48297e-009
Heightened Def Con from 4.48297e-009 to 4.48298e-009
Heightened Def Con from 4.48304e-009 to 4.4831e-009
Heightened Def Con from 4.48322e-009 to 4.48322e-009
Heightened Def Con from 4.48322e-009 to 4.48323e-009
Heightened Def Con from 4.48323e-009 +to 4.48324e-009
Heightened Def Con from 4.48353e-009 to 4.48353e-009
Heightened Def Con from 4.48353e-009 to 4.4836e-009
Heightened Def Con from 4.48381e-009 to 4.48387e-009
Heightened Def Con from 4.48392e-009 to 4.48396e-009
Heightened Def Con from 4.48411e-009 to 4.48411e-009
Heightened Def Con from 4.48411e-009 to 4.48411e-009
Heightened Def Con from 4.48411e-009 to 4.48418e-009
Heightened Def Con from 4.48423e-009 to 4.48424e-009
Heightened Def Con from 4.48424e-009 to 4.48425e-009
Heightened Def Con from 4.48426e-009 to 4.48429e-009
Heightened Def Con from 4.48431e-009 to 4.48431e-009
Heightened Def Con from 4.48431e-009 +to 4.48629e-009
Heightened Def Con from 4.48636e-009 to 4.48639e-009
Heightened Def Con from 4.48639e-009 to 4.48642e-009
Heightened Def Con from 4.48642e-009 to 4.48669e-009
Heightened Def Con from 4.48699e-009 to 4.48703e-009
Heightened Def Con from 4.48705e-009 to 4.48707e-009
Heightened Def Con from 4.4871e-009 to 4.48738e-009
Heightened Def Con from 4.48745e-009 to 4.48746e-009
Heightened Def Con from 4.48762e-009 to 4.48768e-009
Heightened Def Con from 4.48773e-009 to 4.48776e-009
Heightened Def Con from 4.48776e-009 to 4.48783e-009
Heightened Def Con from 4.48791e-009 to 4.48797e-009
Heightened Def Con from 4.48808e-009 to 4.48814e-009
Heightened Def Con from 4.48821e-009 to 4.48824e-009
Heightened Def Con from 4.48826e-009 to 4.48826e-009
Heightened Def Con from 4.48826e-009 to 4.48832e-009
Heightened Def Con from 4.48835e-009 to 4.48839e-009
Heightened Def Con from 4.48839e-009 to 4.48843e-009
Heightened Def Con from 4.48863e-009 to 4.48869e-009
Heightened Def Con from 4.4887e-009 to 4.48873e-009
Heightened Def Con from 4.48876e-009 to 4.48882e-009
Heightened Def Con from 4.48898e-009 to 4.48898e-009
Heightened Def Con from 4.48898e-009 to 4.48904e-009
Heightened Def Con from 4.48904e-009 +to 4.48906e-009
Heightened Def Con from 4.48906e-009 to 4.48909e-009
Heightened Def Con from 4.48909e-009 to 4.48915e-009
Heightened Def Con from 4.48915e-009 to 4.48915e-009
Heightened Def Con from 4.48915e-009 +to 4.48964e-009
Heightened Def Con from 4.48964e-009 to 4.48992e-009
Heightened Def Con from 4.49031e-009 to 4.49059e-009
Heightened Def Con from 4.49075e-009 to 4.49081e-009
Heightened Def Con from 4.49095e-009 to 4.49096e-009
Heightened Def Con from 4.49097e-009 to 4.49103e-009
Heightened Def Con from 4.49105e-009 +to 4.49106e-009
Heightened Def Con from 4.49107e-009 to 4.49108e-009
Heightened Def Con from 4.49108e-009 to 4.49111e-009
Heightened Def Con from 4.49111e-009 to 4.61611e-009
Heightened Def Con from 4.61614e-009 to 4.61615e-009
Heightened Def Con from 4.61615e-009 to 4.61616e-009
Heightened Def Con from 4.61624e-009 to 4.61625e-009
Heightened Def Con from 4.61629e-009 to 4.6163e-009
Heightened Def Con from 4.61631e-009 to 4.61632e-009
Heightened Def Con from 4.61632e-009 to 4.61632e-009
Heightened Def Con from 4.61655e-009 to 4.61662e-009
Heightened Def Con from 4.61664e-009 to 4.61671e-009
Heightened Def Con from 4.61673e-009 to 4.61674e-009
Heightened Def Con from 4.61676e-009 to 4.61679e-009
Heightened Def Con from 4.61679e-009 to 4.61679e-009
Heightened Def Con from 4.61679e-009 to 4.6168e-009
Heightened Def Con from 4.61686e-009 +to 4.61713e-009
Heightened Def Con from 4.61714e-009 to 4.6172e-009
Heightened Def Con from 4.6172e-009 to 4.61723e-009
Heightened Def Con from 4.61737e-009 to 4.61741e-009
Heightened Def Con from 4.61741e-009 to 4.61745e-009
Heightened Def Con from 4.61747e-009 +to 4.61774e-009
Heightened Def Con from 4.61789e-009 to 4.61792e-009
Heightened Def Con from 4.61792e-009 to 4.61796e-009
Heightened Def Con from 4.61797e-009 to 4.61797e-009
Heightened Def Con from 4.61797e-009 +to 4.61801e-009
Heightened Def Con from 4.61831e-009 to 4.61831e-009
Heightened Def Con from 4.61831e-009 to 4.61831e-009
Heightened Def Con from 4.61831e-009 to 4.61832e-009
Heightened Def Con from 4.6185e-009 to 4.61856e-009
Heightened Def Con from 4.61856e-009 to 4.61859e-009
Heightened Def Con from 4.61859e-009 to 4.61863e-009
Heightened Def Con from 4.61902e-009 to 4.61905e-009
Heightened Def Con from 4.61917e-009 to 4.61917e-009
Heightened Def Con from 4.61918e-009 to 4.61918e-009
Heightened Def Con from 4.61918e-009 to 4.61918e-009
Heightened Def Con from 4.61918e-009 to 4.61924e-009
Heightened Def Con from 4.61933e-009 to 4.74433e-009
Heightened Def Con from 4.74433e-009 +to 4.74434e-009
Heightened Def Con from 4.74437e-009 +to 4.74465e-009
Heightened Def Con from 4.74465e-009 to 4.74471e-009
Heightened Def Con from 4.74478e-009 to 4.74676e-009
Heightened Def Con from 4.74679e-009 to 4.74703e-009
Heightened Def Con from 4.74703e-009 +to 5.74706e-009
Heightened Def Con from 5.74706e-009 to 5.74707e-009
Heightened Def Con from 5.7471e-009 to 5.7471e-009
Heightened Def Con from 5.7471e-009 to 5.74713e-009
Heightened Def Con from 5.74714e-009 to 5.76276e-009
Heightened Def Con from 5.76276e-009 to 5.76276e-009
Heightened Def Con from 5.76276e-009 to 5.76277e-009
Heightened Def Con from 5.76277e-009 to 5.7628e-009
Heightened Def Con from 5.7628e-009 +to 5.76304e-009
Heightened Def Con from 5.76304e-009 to 5.76307e-009
Heightened Def Con from 5.76307e-009 to 5.76313e-009
Heightened Def Con from 5.76313e-009 to 5.76313e-009
Heightened Def Con from 5.76313e-009 to 5.76512e-009
Heightened Def Con from 5.76518e-009 to 5.76519e-009
Heightened Def Con from 5.76519e-009 to 5.76519e-009
Heightened Def Con from 5.76519e-009 +to 5.76528e-009
Heightened Def Con from 5.76528e-009 to 5.76537e-009
Heightened Def Con from 5.7655e-009 to 5.76551e-009
Heightened Def Con from 5.76552e-009 +to 5.76556e-009
Heightened Def Con from 5.76558e-009 +to 5.7656e-009
Heightened Def Con from 5.76567e-009 +to 5.7657e-009
Heightened Def Con from 5.76577e-009 to 5.76578e-009
Heightened Def Con from 5.76579e-009 to 5.76582e-009
Heightened Def Con from 5.76587e-009 to 5.76588e-009
Heightened Def Con from 5.76605e-009 to 5.76612e-009
Heightened Def Con from 5.76617e-009 to 5.7662e-009
Heightened Def Con from 5.76627e-009 to 5.7663e-009
Heightened Def Con from 5.76631e-009 +to 5.76637e-009
Heightened Def Con from 5.76642e-009 to 5.76642e-009
Heightened Def Con from 5.76658e-009 to 5.76658e-009
Heightened Def Con from 5.76664e-009 to 5.76664e-009
Heightened Def Con from 5.76676e-009 to 5.76679e-009
Heightened Def Con from 5.76679e-009 to 5.76679e-009
Heightened Def Con from 5.76679e-009 +to 5.76685e-009
Heightened Def Con from 5.767e-009 to 5.76701e-009
Heightened Def Con from 5.76701e-009 to 5.76701e-009
Heightened Def Con from 5.7671e-009 to 5.76711e-009
Heightened Def Con from 5.76711e-009 to 5.76714e-009
Heightened Def Con from 5.76716e-009 +to 5.78278e-009
Heightened Def Con from 5.78279e-009 +to 5.78282e-009
Heightened Def Con from 5.78288e-009 +to 5.78294e-009
Heightened Def Con from 5.78294e-009 to 5.78303e-009
Heightened Def Con from 5.78309e-009 +to 5.78337e-009
Heightened Def Con from 5.78358e-009 to 5.78364e-009
Heightened Def Con from 5.78364e-009 to 5.78365e-009
Heightened Def Con from 5.78365e-009 to 5.78365e-009
Heightened Def Con from 5.78365e-009 to 5.7839e-009
Heightened Def Con from 5.78399e-009 to 5.78426e-009
Heightened Def Con from 5.78432e-009 to 5.90935e-009
Heightened Def Con from 5.90936e-009 to 5.90961e-009
Heightened Def Con from 5.90968e-009 +to 5.90975e-009
Heightened Def Con from 5.90975e-009 to 5.90981e-009
Heightened Def Con from 5.90993e-009 to 5.90999e-009
Heightened Def Con from 5.90999e-009 to 5.91003e-009
Heightened Def Con from 5.91003e-009 to 5.91003e-009
Heightened Def Con from 5.91003e-009 to 5.91004e-009
Heightened Def Con from 5.91004e-009 to 5.91004e-009
Heightened Def Con from 5.91004e-009 +to 5.91031e-009
Heightened Def Con from 5.91033e-009 to 5.91036e-009
Heightened Def Con from 5.91037e-009 to 5.926e-009
Heightened Def Con from 5.92601e-009 to 6.92601e-009
Heightened Def Con from 6.92601e-009 +to 6.92604e-009
Heightened Def Con from 6.92613e-009 to 6.92808e-009
Heightened Def Con from 6.92811e-009 to 6.92811e-009
Heightened Def Con from 6.92811e-009 +to 6.92862e-009
Heightened Def Con from 6.9287e-009 to 6.92871e-009
Heightened Def Con from 6.92883e-009 to 6.92886e-009
Heightened Def Con from 6.92886e-009 to 6.92887e-009
Heightened Def Con from 6.92887e-009 +to 6.92896e-009
Heightened Def Con from 6.92896e-009 to 6.92897e-009
Heightened Def Con from 6.92897e-009 to 6.92898e-009
Heightened Def Con from 6.92901e-009 to 6.92901e-009
Heightened Def Con from 6.92901e-009 to 6.92903e-009
Heightened Def Con from 6.92903e-009 to 6.92903e-009
Heightened Def Con from 6.92903e-009 to 6.92904e-009
Heightened Def Con from 6.92908e-009 ++to 6.9296e-009
Heightened Def Con from 6.92987e-009 to 6.92988e-009
Heightened Def Con from 6.92988e-009 to 6.92989e-009
Heightened Def Con from 6.92989e-009 to 6.93062e-009
Heightened Def Con from 6.9307e-009 to 6.93073e-009
Heightened Def Con from 6.93118e-009 +to 6.93124e-009
Heightened Def Con from 6.93125e-009 to 6.93131e-009
Heightened Def Con from 6.93134e-009 to 6.9314e-009
Heightened Def Con from 6.93156e-009 to 6.93183e-009
Heightened Def Con from 6.93183e-009 to 6.93208e-009
Heightened Def Con from 6.93212e-009 +to 6.93215e-009
Heightened Def Con from 6.93215e-009 to 6.93219e-009
Heightened Def Con from 6.93246e-009 to 6.93249e-009
Heightened Def Con from 6.93249e-009 to 6.93253e-009
Heightened Def Con from 6.93253e-009 to 6.93256e-009
Heightened Def Con from 6.93258e-009 to 6.93264e-009
Heightened Def Con from 6.93267e-009 to 6.93268e-009
Heightened Def Con from 6.93271e-009 to 6.93272e-009
Heightened Def Con from 6.93272e-009 to 6.93275e-009
Heightened Def Con from 6.93294e-009 to 6.93295e-009
Heightened Def Con from 6.93295e-009 to 6.93296e-009
Heightened Def Con from 6.93296e-009 to 6.93299e-009
Heightened Def Con from 6.93301e-009 to 6.93304e-009
Heightened Def Con from 6.93306e-009 to 6.93307e-009
Heightened Def Con from 6.93313e-009 to 6.93314e-009
Heightened Def Con from 6.93315e-009 to 6.93321e-009
Heightened Def Con from 6.93323e-009 to 6.93327e-009
Heightened Def Con from 6.93327e-009 to 6.93327e-009
Heightened Def Con from 6.93327e-009 to 6.93328e-009
Heightened Def Con from 6.93328e-009 to 6.93329e-009
Heightened Def Con from 6.9333e-009 to 6.93331e-009
Heightened Def Con from 6.93331e-009 to 6.93332e-009
Heightened Def Con from 6.93336e-009 to 6.93339e-009
Heightened Def Con from 6.93341e-009 to 6.93341e-009
Heightened Def Con from 6.93342e-009 to 6.93342e-009
Heightened Def Con from 6.93344e-009 to 6.9335e-009
Heightened Def Con from 6.9335e-009 to 6.93351e-009
Heightened Def Con from 6.93362e-009 to 6.93363e-009
Heightened Def Con from 6.93373e-009 to 6.93373e-009
Heightened Def Con from 6.93373e-009 to 6.93373e-009
Heightened Def Con from 6.93373e-009 +to 6.93377e-009
Heightened Def Con from 6.93382e-009 to 6.93388e-009
Heightened Def Con from 6.93415e-009 to 6.93416e-009
Heightened Def Con from 6.93416e-009 to 6.93416e-009
Heightened Def Con from 6.93416e-009 to 6.93417e-009
Heightened Def Con from 6.93417e-009 to 6.9342e-009
Heightened Def Con from 6.93425e-009 to 6.93431e-009
Heightened Def Con from 6.93432e-009 to 6.93433e-009
Heightened Def Con from 6.93435e-009 to 6.93435e-009
Heightened Def Con from 6.93436e-009 +to 6.93439e-009
Heightened Def Con from 6.93439e-009 to 6.9344e-009
Heightened Def Con from 6.9344e-009 to 6.93444e-009
Heightened Def Con from 6.93444e-009 to 6.9345e-009
Heightened Def Con from 6.9345e-009 to 6.93456e-009
Heightened Def Con from 6.9346e-009 to 6.9346e-009
Heightened Def Con from 6.93495e-009 to 6.9352e-009
Heightened Def Con from 6.93524e-009 to 6.93524e-009
Heightened Def Con from 6.93524e-009 to 6.93528e-009
Heightened Def Con from 6.93528e-009 to 6.93531e-009
Heightened Def Con from 6.93533e-009 to 6.93534e-009
Heightened Def Con from 6.93535e-009 to 7.93535e-009
Heightened Def Con from 7.93539e-009 to 7.93734e-009
Heightened Def Con from 7.93736e-009 to 7.93736e-009
Heightened Def Con from 7.93736e-009 +to 7.93745e-009
Heightened Def Con from 7.93752e-009 to 7.93752e-009
Heightened Def Con from 7.93752e-009 to 7.93755e-009
Heightened Def Con from 7.93755e-009 to 7.93755e-009
Heightened Def Con from 7.93756e-009 to 7.93759e-009
Heightened Def Con from 7.93759e-009 +to 7.95322e-009
Heightened Def Con from 7.95322e-009 to 7.95323e-009
Heightened Def Con from 7.95323e-009 +to 7.95327e-009
Heightened Def Con from 7.95345e-009 to 7.95348e-009
Heightened Def Con from 7.95358e-009 to 7.95358e-009
Heightened Def Con from 7.95358e-009 ++to 7.95359e-009
Heightened Def Con from 7.9536e-009 to 7.95361e-009
Heightened Def Con from 7.95368e-009 to 7.95396e-009
Heightened Def Con from 7.95396e-009 +to 7.95405e-009
Heightened Def Con from 7.95411e-009 to 7.95413e-009
Heightened Def Con from 7.95419e-009 to 7.95447e-009
Heightened Def Con from 7.95471e-009 +to 7.95496e-009
Heightened Def Con from 7.95496e-009 to 7.95502e-009
Heightened Def Con from 7.9551e-009 to 8.08011e-009
Heightened Def Con from 8.08026e-009 +to 8.08038e-009
Heightened Def Con from 8.08062e-009 to 8.20563e-009
Heightened Def Con from 8.20576e-009 to 8.20577e-009
Heightened Def Con from 8.2058e-009 to 8.20589e-009
Heightened Def Con from 8.20596e-009 to 8.20599e-009
Heightened Def Con from 8.20599e-009 to 8.206e-009
Heightened Def Con from 8.206e-009 to 8.20607e-009
Heightened Def Con from 8.20609e-009 to 8.2061e-009
Heightened Def Con from 8.20616e-009 to 8.20617e-009
Heightened Def Con from 8.20637e-009 to 8.2064e-009
Heightened Def Con from 8.20649e-009 +to 8.2065e-009
Heightened Def Con from 8.2065e-009 to 8.20656e-009
Heightened Def Con from 8.20656e-009 +to 8.20681e-009
Heightened Def Con from 8.20681e-009 to 8.20681e-009
Heightened Def Con from 8.20702e-009 to 8.20703e-009
Heightened Def Con from 8.20705e-009 to 8.20706e-009
Heightened Def Con from 8.20711e-009 to 8.20712e-009
Heightened Def Con from 8.20712e-009 to 8.20712e-009
Heightened Def Con from 8.20712e-009 to 8.2074e-009
Heightened Def Con from 8.20741e-009 to 8.2075e-009
Heightened Def Con from 8.20764e-009 to 8.20764e-009
Heightened Def Con from 8.20765e-009 +to 8.20963e-009
Heightened Def Con from 8.20965e-009 to 8.20975e-009
Heightened Def Con from 8.20975e-009 to 8.20981e-009
Heightened Def Con from 8.20982e-009 to 8.21006e-009
Heightened Def Con from 8.21006e-009 +to 8.21056e-009
Heightened Def Con from 8.21056e-009 to 8.21066e-009
Heightened Def Con from 8.21072e-009 to 8.21081e-009
Heightened Def Con from 8.21087e-009 to 8.21088e-009
Heightened Def Con from 8.21092e-009 +to 8.21101e-009
Heightened Def Con from 8.21103e-009 to 8.21104e-009
Heightened Def Con from 8.21108e-009 to 8.21111e-009
Heightened Def Con from 8.21119e-009 +to 8.2112e-009
Heightened Def Con from 8.21121e-009 to 8.21122e-009
Heightened Def Con from 8.21123e-009 to 8.2115e-009
Heightened Def Con from 8.21191e-009 to 8.22756e-009
Heightened Def Con from 8.22775e-009 to 8.22781e-009
Heightened Def Con from 8.22781e-009 to 8.22782e-009
Heightened Def Con from 8.22782e-009 to 9.22783e-009
Heightened Def Con from 9.22783e-009 to 9.24541e-009
Heightened Def Con from 9.24541e-009 +to 9.24547e-009
Heightened Def Con from 9.24557e-009 +to 9.24563e-009
Heightened Def Con from 9.24564e-009 to 9.24591e-009
Heightened Def Con from 9.24598e-009 to 9.24599e-009
Heightened Def Con from 9.246e-009 +to 9.2461e-009
Heightened Def Con from 9.2463e-009 +to 9.24636e-009
Heightened Def Con from 9.24642e-009 to 9.24651e-009
Heightened Def Con from 9.24664e-009 to 9.24665e-009
Heightened Def Con from 9.24665e-009 to 9.26228e-009
Heightened Def Con from 9.26235e-009 to 9.26244e-009
Heightened Def Con from 9.26249e-009 to 9.2625e-009
Heightened Def Con from 9.26253e-009 to 9.26253e-009
Heightened Def Con from 9.26253e-009 +to 9.26254e-009
Heightened Def Con from 9.26254e-009 to 9.26254e-009
Heightened Def Con from 9.26254e-009 +to 9.26258e-009
Heightened Def Con from 9.26258e-009 +to 9.26264e-009
Heightened Def Con from 9.26274e-009 to 9.2628e-009
Heightened Def Con from 9.26287e-009 to 9.26288e-009
Heightened Def Con from 9.26289e-009 to 9.26292e-009
Heightened Def Con from 9.26293e-009 to 9.26296e-009
Heightened Def Con from 9.26297e-009 to 9.26303e-009
Heightened Def Con from 9.26307e-009 to 9.26332e-009
Heightened Def Con from 9.26334e-009 to 9.26334e-009
Heightened Def Con from 9.26334e-009 +to 9.26335e-009
Heightened Def Con from 9.26344e-009 +to 9.26369e-009
Heightened Def Con from 9.26369e-009 to 9.26373e-009
Heightened Def Con from 9.26374e-009 to 9.26374e-009
Heightened Def Con from 9.26391e-009 to 9.26391e-009
Heightened Def Con from 9.26391e-009 to 9.26395e-009
Heightened Def Con from 9.26397e-009 to 9.26397e-009
Heightened Def Con from 9.26397e-009 to 9.26403e-009
Heightened Def Con from 9.26422e-009 to 9.26428e-009
Heightened Def Con from 9.26428e-009 to 9.26431e-009
Heightened Def Con from 9.26431e-009 to 9.26431e-009
Heightened Def Con from 9.26431e-009 to 9.26435e-009
Heightened Def Con from 9.26435e-009 to 9.26435e-009
Heightened Def Con from 9.26436e-009 to 9.26436e-009
Heightened Def Con from 9.26436e-009 to 9.26485e-009
Heightened Def Con from 9.26486e-009 to 9.26489e-009
Heightened Def Con from 9.26489e-009 to 9.26492e-009
Heightened Def Con from 9.26492e-009 to 9.38992e-009
Heightened Def Con from 9.38992e-009 +to 9.39017e-009
Heightened Def Con from 9.39041e-009 to 9.39041e-009
Heightened Def Con from 9.39041e-009 to 9.39066e-009
Heightened Def Con from 9.39066e-009 to 9.39073e-009
Heightened Def Con from 9.3908e-009 to 9.3908e-009
Heightened Def Con from 9.3908e-009 +to 9.39087e-009
Heightened Def Con from 9.391e-009 to 9.39124e-009
Heightened Def Con from 9.39132e-009 to 9.39139e-009
Heightened Def Con from 9.39141e-009 +to 9.39148e-009
Heightened Def Con from 9.39156e-009 to 9.39157e-009
Heightened Def Con from 9.39162e-009 to 9.39162e-009
Heightened Def Con from 9.39162e-009 +to 9.39178e-009
Heightened Def Con from 9.39199e-009 to 9.392e-009
Heightened Def Con from 9.39203e-009 to 9.39209e-009
Heightened Def Con from 9.3921e-009 to 9.39211e-009
Heightened Def Con from 9.39211e-009 to 9.39211e-009
Heightened Def Con from 9.39211e-009 +to 9.39217e-009
Heightened Def Con from 9.39231e-009 +to 9.39234e-009
Heightened Def Con from 9.39234e-009 to 9.3924e-009
Heightened Def Con from 9.39251e-009 to 9.39257e-009
Heightened Def Con from 9.39257e-009 +to 9.3926e-009
Heightened Def Con from 9.39265e-009 +to 9.39268e-009
Heightened Def Con from 9.39272e-009 to 9.39296e-009
Heightened Def Con from 9.39296e-009 +to 9.39348e-009
Heightened Def Con from 9.39364e-009 to 9.39364e-009
Heightened Def Con from 9.39365e-009 to 9.39368e-009
Heightened Def Con from 9.39368e-009 to 9.39396e-009
Heightened Def Con from 9.39397e-009 to 9.39397e-009
Heightened Def Con from 9.39404e-009 to 9.39404e-009
Heightened Def Con from 9.39404e-009 +to 9.39414e-009
Heightened Def Con from 9.3943e-009 to 9.39433e-009
Heightened Def Con from 9.39433e-009 +to 9.39461e-009
Heightened Def Con from 9.39484e-009 to 9.39484e-009
Heightened Def Con from 9.39484e-009 to 9.39484e-009
Heightened Def Con from 9.39484e-009 to 9.39491e-009
Heightened Def Con from 9.39491e-009 to 9.39492e-009
Heightened Def Con from 9.39492e-009 to 9.39492e-009
Heightened Def Con from 9.39492e-009 to 9.39492e-009
Heightened Def Con from 9.39492e-009 +to 9.39495e-009
Heightened Def Con from 9.39498e-009 +to 9.39505e-009
Heightened Def Con from 9.39522e-009 to 9.39529e-009
Heightened Def Con from 9.39529e-009 to 9.39529e-009
Heightened Def Con from 9.39529e-009 to 9.39529e-009
Heightened Def Con from 9.39529e-009 +to 9.39536e-009
Heightened Def Con from 9.39545e-009 to 9.39551e-009
Heightened Def Con from 9.39555e-009 to 9.39555e-009
Heightened Def Con from 9.39555e-009 +to 9.39556e-009
Heightened Def Con from 9.39557e-009 to 9.39581e-009
Heightened Def Con from 9.39581e-009 ++to 9.53671e-009
Heightened Def Con from 9.53671e-009 to 9.53677e-009
Heightened Def Con from 9.53748e-009 to 9.53775e-009
Heightened Def Con from 9.53789e-009 to 9.53789e-009
Heightened Def Con from 9.53799e-009 to 9.53848e-009
Heightened Def Con from 9.53848e-009 to 9.53854e-009
Heightened Def Con from 9.53896e-009 to 9.5392e-009
Heightened Def Con from 9.53923e-009 to 9.53926e-009
Heightened Def Con from 9.53947e-009 to 9.5395e-009
Heightened Def Con from 9.5395e-009 to 9.53999e-009
Heightened Def Con from 9.53999e-009 to 9.53999e-009
Heightened Def Con from 9.53999e-009 +to 9.54027e-009
Heightened Def Con from 9.54027e-009 to 9.54033e-009
Heightened Def Con from 9.54066e-009 to 9.66567e-009
Heightened Def Con from 9.66568e-009 +to 9.66574e-009
Heightened Def Con from 9.66586e-009 ++to 9.66635e-009
Heightened Def Con from 9.66644e-009 to 9.66645e-009
Heightened Def Con from 9.66645e-009 to 9.66645e-009
Heightened Def Con from 9.66645e-009 to 9.66648e-009
Heightened Def Con from 9.66648e-009 ++to 9.66676e-009
Heightened Def Con from 9.66689e-009 to 9.66689e-009
Heightened Def Con from 9.66689e-009 to 9.66693e-009
Heightened Def Con from 9.66693e-009 to 9.66693e-009
Heightened Def Con from 9.66693e-009 to 9.66702e-009
Heightened Def Con from 9.66706e-009 to 9.66706e-009
Heightened Def Con from 9.66706e-009 to 9.68272e-009
Heightened Def Con from 9.68278e-009 to 9.68287e-009
Heightened Def Con from 9.68291e-009 to 9.683e-009
Heightened Def Con from 9.683e-009 +to 9.68499e-009
Heightened Def Con from 9.68512e-009 to 9.68512e-009
Heightened Def Con from 9.68522e-009 to 9.68525e-009
Heightened Def Con from 9.68527e-009 to 9.68533e-009
Heightened Def Con from 9.68533e-009 to 9.68533e-009
Heightened Def Con from 9.68533e-009 to 9.68534e-009
Heightened Def Con from 9.68534e-009 to 9.68535e-009
Heightened Def Con from 9.68548e-009 to 9.68548e-009
Heightened Def Con from 9.68548e-009 to 9.68554e-009
Heightened Def Con from 9.68564e-009 to 9.68591e-009
Heightened Def Con from 9.68595e-009 to 9.68595e-009
Heightened Def Con from 9.68595e-009 +++to 9.68824e-009
Heightened Def Con from 9.68918e-009 to 9.68946e-009
Heightened Def Con from 9.68957e-009 to 9.68985e-009
Heightened Def Con from 9.68996e-009 to 9.69021e-009
Heightened Def Con from 9.69033e-009 to 9.69033e-009
Heightened Def Con from 9.69033e-009 to 9.69228e-009
Heightened Def Con from 9.69228e-009 +to 9.69229e-009
Heightened Def Con from 9.69237e-009 +to 9.6924e-009
Heightened Def Con from 9.69272e-009 to 9.69321e-009
Heightened Def Con from 9.69342e-009 to 9.6937e-009
Heightened Def Con from 9.69378e-009 to 9.69384e-009
Heightened Def Con from 9.69395e-009 to 9.69396e-009
Heightened Def Con from 9.69399e-009 to 9.69424e-009
Heightened Def Con from 9.69427e-009 to 9.6943e-009
Heightened Def Con from 9.6943e-009 to 9.69431e-009
Heightened Def Con from 9.69433e-009 to 9.6946e-009
Heightened Def Con from 9.69461e-009 to 9.69461e-009
Heightened Def Con from 9.69461e-009 to 9.69462e-009
Heightened Def Con from 9.69463e-009 to 9.69466e-009
Heightened Def Con from 9.69467e-009 to 9.69467e-009
Heightened Def Con from 9.69467e-009 to 9.69467e-009
Heightened Def Con from 9.69467e-009 to 9.69473e-009
Heightened Def Con from 9.69488e-009 to 9.69491e-009
Heightened Def Con from 9.69496e-009 to 9.69502e-009
Heightened Def Con from 9.69505e-009 to 9.69509e-009
Heightened Def Con from 9.69509e-009 to 9.69515e-009
Heightened Def Con from 9.69521e-009 to 9.69525e-009
Heightened Def Con from 9.69525e-009 to 9.69525e-009
Heightened Def Con from 9.69529e-009 to 9.69535e-009
Heightened Def Con from 9.69536e-009 to 9.6954e-009
Heightened Def Con from 9.69543e-009 to 9.69543e-009
Heightened Def Con from 9.69543e-009 to 9.69543e-009
Heightened Def Con from 9.69543e-009 to 9.69546e-009
Heightened Def Con from 9.69564e-009 to 9.69567e-009
Heightened Def Con from 9.69585e-009 to 9.69585e-009
Heightened Def Con from 9.69585e-009 to 9.69585e-009
Heightened Def Con from 9.69585e-009 to 9.69591e-009
Heightened Def Con from 9.696e-009 +to 9.69628e-009
Heightened Def Con from 9.6965e-009 +to 9.69653e-009
Heightened Def Con from 9.69655e-009 +to 9.69656e-009
Heightened Def Con from 9.69659e-009 to 9.69659e-009
Heightened Def Con from 9.69659e-009 to 9.69659e-009
Heightened Def Con from 9.69659e-009 to 9.69662e-009
Heightened Def Con from 9.69663e-009 to 9.69663e-009
Heightened Def Con from 9.69663e-009 +to 9.69669e-009
Heightened Def Con from 9.69678e-009 to 9.69681e-009
Heightened Def Con from 9.69721e-009 to 9.69727e-009
Heightened Def Con from 9.69727e-009 to 9.6973e-009
Heightened Def Con from 9.6973e-009 to 9.6973e-009
Heightened Def Con from 9.6973e-009 +to 9.69733e-009
Heightened Def Con from 9.69741e-009 to 9.69747e-009
Heightened Def Con from 9.6975e-009 to 9.69756e-009
Heightened Def Con from 9.69756e-009 to 9.69756e-009
Heightened Def Con from 9.69762e-009 to 9.69762e-009
Heightened Def Con from 9.69762e-009 +to 9.69762e-009
Heightened Def Con from 9.69762e-009 to 9.69766e-009
Heightened Def Con from 9.69766e-009 to 9.69766e-009
Heightened Def Con from 9.69766e-009 to 9.69766e-009
Heightened Def Con from 9.69766e-009 to 9.69766e-009
Heightened Def Con from 9.69767e-009 to 9.69771e-009
Heightened Def Con from 9.69771e-009 to 9.69771e-009
Heightened Def Con from 9.69771e-009 +to 9.69778e-009
Heightened Def Con from 9.69797e-009 to 9.69798e-009
Heightened Def Con from 9.69798e-009 to 9.71385e-009
Heightened Def Con from 9.71386e-009 to 9.71387e-009
Heightened Def Con from 9.71387e-009 +to 9.71393e-009
Heightened Def Con from 9.71395e-009 to 9.71422e-009
Heightened Def Con from 9.71427e-009 +to 9.71431e-009
Heightened Def Con from 9.71432e-009 to 9.71433e-009
Heightened Def Con from 9.71434e-009 to 9.71435e-009
Heightened Def Con from 9.71435e-009 to 9.71441e-009
Heightened Def Con from 9.71446e-009 to 9.71449e-009
Heightened Def Con from 9.71449e-009 +to 9.7145e-009
Heightened Def Con from 9.7145e-009 to 9.71451e-009
Heightened Def Con from 9.71459e-009 +to 9.71464e-009
Heightened Def Con from 9.71464e-009 to 9.71468e-009
Heightened Def Con from 9.71475e-009 to 9.71478e-009
Heightened Def Con from 9.71481e-009 to 9.71481e-009
Heightened Def Con from 9.71481e-009 to 9.71485e-009
Heightened Def Con from 9.71485e-009 to 9.71488e-009
Heightened Def Con from 9.7149e-009 to 9.71491e-009
Heightened Def Con from 9.71491e-009 to 9.71492e-009
Heightened Def Con from 9.71493e-009 to 9.71493e-009
Heightened Def Con from 9.71498e-009 ++to 9.71504e-009
Heightened Def Con from 9.71523e-009 to 9.71529e-009
Heightened Def Con from 9.71536e-009 to 9.71563e-009
Heightened Def Con from 9.7157e-009 to 9.7157e-009
Heightened Def Con from 9.71571e-009 to 9.71577e-009
Heightened Def Con from 9.71583e-009 to 9.71586e-009
Heightened Def Con from 9.71587e-009 to 9.71615e-009
Heightened Def Con from 9.71621e-009 to 9.71624e-009
Heightened Def Con from 9.71624e-009 to 9.71649e-009
Heightened Def Con from 9.71649e-009 to 9.71649e-009
Heightened Def Con from 9.71649e-009 to 9.71655e-009
Heightened Def Con from 9.7166e-009 to 9.71663e-009
Heightened Def Con from 9.71663e-009 to 9.71663e-009
Heightened Def Con from 9.71671e-009 to 9.71672e-009
Heightened Def Con from 9.71681e-009 to 9.71687e-009
Heightened Def Con from 9.71687e-009 to 9.71688e-009
Heightened Def Con from 9.71694e-009 to 9.71695e-009
Heightened Def Con from 9.71696e-009 to 9.71697e-009
Heightened Def Con from 9.71697e-009 to 9.71724e-009
Heightened Def Con from 9.7173e-009 to 9.71733e-009
Heightened Def Con from 9.71737e-009 to 9.71738e-009
Heightened Def Con from 9.71739e-009 to 9.71739e-009
Heightened Def Con from 9.71739e-009 to 9.71767e-009
Heightened Def Con from 9.71779e-009 to 9.71806e-009
Heightened Def Con from 9.71817e-009 to 9.71823e-009
Heightened Def Con from 9.71826e-009 to 9.71854e-009
Heightened Def Con from 9.71865e-009 to 9.71866e-009
Heightened Def Con from 9.71866e-009 to 9.71872e-009
Heightened Def Con from 9.71876e-009 to 9.7188e-009
Heightened Def Con from 9.71894e-009 +to 9.719e-009
Heightened Def Con from 9.71917e-009 to 9.71921e-009
Heightened Def Con from 9.71926e-009 to 9.71951e-009
Heightened Def Con from 9.71961e-009 to 9.71962e-009
Heightened Def Con from 9.71969e-009 to 9.71975e-009
Heightened Def Con from 9.7198e-009 to 9.72176e-009
Heightened Def Con from 9.72188e-009 to 9.72189e-009
Heightened Def Con from 9.72189e-009 to 9.72216e-009
Heightened Def Con from 9.72216e-009 to 9.72223e-009
Heightened Def Con from 9.72244e-009 to 9.84744e-009
Heightened Def Con from 9.84744e-009 to 9.84745e-009
Heightened Def Con from 9.84745e-009 to 9.84748e-009
Heightened Def Con from 9.84751e-009 +to 9.84775e-009
Heightened Def Con from 9.84776e-009 to 9.84785e-009
Heightened Def Con from 9.84792e-009 to 9.84792e-009
Heightened Def Con from 9.84803e-009 to 9.84803e-009
Heightened Def Con from 9.84803e-009 to 9.84812e-009
Heightened Def Con from 9.84812e-009 +to 9.86399e-009
Heightened Def Con from 9.86401e-009 to 9.86428e-009
Heightened Def Con from 9.86435e-009 to 9.86441e-009
Heightened Def Con from 9.86468e-009 to 9.98971e-009
Heightened Def Con from 9.98978e-009 +to 9.98981e-009
Heightened Def Con from 9.98981e-009 to 9.99009e-009
Heightened Def Con from 9.99015e-009 to 9.99015e-009
Heightened Def Con from 9.99015e-009 to 9.99016e-009
Heightened Def Con from 9.99017e-009 to 9.99024e-009
Heightened Def Con from 9.99036e-009 +to 9.99039e-009
Heightened Def Con from 9.99052e-009 to 9.99053e-009
Heightened Def Con from 9.99054e-009 to 9.99058e-009
Heightened Def Con from 9.99058e-009 to 9.99059e-009
Heightened Def Con from 9.99059e-009 to 9.99066e-009
Heightened Def Con from 9.99066e-009 to 9.99072e-009
Heightened Def Con from 9.99078e-009 to 9.99078e-009
Heightened Def Con from 9.9908e-009 to 9.99105e-009
Heightened Def Con from 9.99109e-009 to 9.9911e-009
Heightened Def Con from 9.9911e-009 to 9.99117e-009
Heightened Def Con from 9.99119e-009 to 9.99123e-009
Heightened Def Con from 9.99125e-009 to 9.99131e-009
Heightened Def Con from 9.99135e-009 to 9.99139e-009
Heightened Def Con from 9.9914e-009 to 9.99147e-009
Heightened Def Con from 9.99147e-009 to 9.9915e-009
Heightened Def Con from 9.99161e-009 to 9.99161e-009
Heightened Def Con from 9.99161e-009 to 9.99162e-009
Heightened Def Con from 9.99162e-009 to 9.99357e-009
Heightened Def Con from 9.99358e-009 to 9.99358e-009
Heightened Def Con from 9.99358e-009 to 9.99383e-009
Heightened Def Con from 9.99383e-009 +to 9.99579e-009
Heightened Def Con from 9.99579e-009 to 9.9958e-009
Heightened Def Con from 9.9958e-009 to 9.99586e-009
Heightened Def Con from 9.99587e-009 to 9.99593e-009
Heightened Def Con from 9.99599e-009 to 9.996e-009
Heightened Def Con from 9.996e-009 to 9.996e-009
Heightened Def Con from 9.996e-009 to 9.99602e-009
Heightened Def Con from 9.99602e-009 to 9.99606e-009
Heightened Def Con from 9.99606e-009 to 9.99607e-009
Heightened Def Con from 9.99613e-009 to 9.99614e-009
Heightened Def Con from 9.99614e-009 +to 9.99618e-009
Heightened Def Con from 9.99618e-009 to 9.99624e-009
Heightened Def Con from 9.99627e-009 +to 1.09963e-008
Heightened Def Con from 1.09963e-008 +to 1.09963e-008
Heightened Def Con from 1.09963e-008 to 1.09963e-008
Heightened Def Con from 1.09964e-008 to 1.09964e-008
Heightened Def Con from 1.09964e-008 to 1.09964e-008
Heightened Def Con from 1.09964e-008 to 1.09965e-008
Heightened Def Con from 1.09968e-008 +to 1.11218e-008
Heightened Def Con from 1.11218e-008 to 1.11218e-008
Heightened Def Con from 1.11218e-008 +to 1.11219e-008
Heightened Def Con from 1.1122e-008 to 1.1122e-008
Heightened Def Con from 1.1122e-008 to 1.1122e-008
Heightened Def Con from 1.1122e-008 to 1.1122e-008
Heightened Def Con from 1.1122e-008 to 1.1122e-008
Heightened Def Con from 1.11221e-008 to 1.11221e-008
Heightened Def Con from 1.11221e-008 to 1.11221e-008
Heightened Def Con from 1.11221e-008 to 1.11221e-008
Heightened Def Con from 1.11221e-008 to 1.11221e-008
Heightened Def Con from 1.11221e-008 +to 1.11221e-008
Heightened Def Con from 1.11221e-008 to 1.11221e-008
Heightened Def Con from 1.11221e-008 to 1.11221e-008
Heightened Def Con from 1.11221e-008 to 1.11222e-008
Heightened Def Con from 1.11222e-008 to 1.11222e-008
Heightened Def Con from 1.11222e-008 +to 1.11222e-008
Heightened Def Con from 1.11222e-008 to 1.11222e-008
Heightened Def Con from 1.11222e-008 to 1.11222e-008
Heightened Def Con from 1.11222e-008 to 1.11223e-008
Heightened Def Con from 1.11223e-008 +to 1.11223e-008
Heightened Def Con from 1.11224e-008 to 1.11224e-008
Heightened Def Con from 1.11224e-008 +to 1.11225e-008
Heightened Def Con from 1.11225e-008 to 1.11225e-008
Heightened Def Con from 1.11226e-008 to 1.11226e-008
Heightened Def Con from 1.11226e-008 to 1.11227e-008
Heightened Def Con from 1.11229e-008 to 1.11229e-008
Heightened Def Con from 1.11229e-008 to 1.1123e-008
Heightened Def Con from 1.11231e-008 to 1.11231e-008
Heightened Def Con from 1.11231e-008 to 1.11232e-008
Heightened Def Con from 1.11232e-008 to 1.11232e-008
Heightened Def Con from 1.11233e-008 to 1.11253e-008
Heightened Def Con from 1.11254e-008 to 1.11254e-008
Heightened Def Con from 1.11254e-008 to 1.11255e-008
Heightened Def Con from 1.11255e-008 to 1.11255e-008
Heightened Def Con from 1.11255e-008 to 1.11255e-008
Heightened Def Con from 1.11255e-008 to 1.11255e-008
Heightened Def Con from 1.11255e-008 to 1.11256e-008
Heightened Def Con from 1.11258e-008 to 1.11259e-008
Heightened Def Con from 1.11263e-008 to 1.11263e-008
Heightened Def Con from 1.11264e-008 to 1.11264e-008
Heightened Def Con from 1.11264e-008 to 1.11264e-008
Heightened Def Con from 1.11265e-008 to 1.11265e-008
Heightened Def Con from 1.11267e-008 to 1.11267e-008
Heightened Def Con from 1.11267e-008 to 1.11267e-008
Heightened Def Con from 1.11267e-008 to 1.11268e-008
Heightened Def Con from 1.11268e-008 to 1.11268e-008
Heightened Def Con from 1.11268e-008 to 1.11269e-008
Heightened Def Con from 1.11269e-008 to 1.11269e-008
Heightened Def Con from 1.11269e-008 to 1.11269e-008
Heightened Def Con from 1.11269e-008 +to 1.11426e-008
Heightened Def Con from 1.11426e-008 to 1.11426e-008
Heightened Def Con from 1.11426e-008 to 1.11427e-008
Heightened Def Con from 1.11427e-008 ++to 1.11437e-008
Heightened Def Con from 1.11439e-008 to 1.11439e-008
Heightened Def Con from 1.11439e-008 to 1.1144e-008
Heightened Def Con from 1.11441e-008 to 1.11444e-008
Heightened Def Con from 1.11444e-008 +to 1.11445e-008
Heightened Def Con from 1.11448e-008 to 1.11449e-008
Heightened Def Con from 1.11449e-008 to 1.11449e-008
Heightened Def Con from 1.11451e-008 to 1.11454e-008
Heightened Def Con from 1.11455e-008 to 1.11455e-008
Heightened Def Con from 1.11455e-008 to 1.11456e-008
Heightened Def Con from 1.11458e-008 to 1.1146e-008
Heightened Def Con from 1.11462e-008 to 1.11462e-008
Heightened Def Con from 1.11464e-008 to 1.11465e-008
Heightened Def Con from 1.11465e-008 to 1.11466e-008
Heightened Def Con from 1.11466e-008 to 1.11467e-008
Heightened Def Con from 1.11468e-008 to 1.11468e-008
Heightened Def Con from 1.11468e-008 to 1.11469e-008
Heightened Def Con from 1.11469e-008 to 1.11469e-008
Heightened Def Con from 1.11469e-008 to 1.1147e-008
Heightened Def Con from 1.1147e-008 to 1.1147e-008
Heightened Def Con from 1.1147e-008 to 1.1147e-008
Heightened Def Con from 1.1147e-008 to 1.11471e-008
Heightened Def Con from 1.11471e-008 to 1.11471e-008
Heightened Def Con from 1.11471e-008 to 1.11472e-008
Heightened Def Con from 1.11472e-008 to 1.11472e-008
Heightened Def Con from 1.11473e-008 to 1.11473e-008
Heightened Def Con from 1.11473e-008 to 1.11474e-008
Heightened Def Con from 1.11475e-008 to 1.11476e-008
Heightened Def Con from 1.11476e-008 to 1.11476e-008
Heightened Def Con from 1.11476e-008 to 1.11476e-008
Heightened Def Con from 1.11476e-008 to 1.11477e-008
Heightened Def Con from 1.11477e-008 to 1.11477e-008
Heightened Def Con from 1.11477e-008 to 1.11477e-008
Heightened Def Con from 1.11479e-008 to 1.11479e-008
Heightened Def Con from 1.1148e-008 to 1.1148e-008
Heightened Def Con from 1.11481e-008 to 1.11481e-008
Heightened Def Con from 1.11482e-008 to 1.11482e-008
Heightened Def Con from 1.11482e-008 to 1.11483e-008
Heightened Def Con from 1.11483e-008 to 1.11484e-008
Heightened Def Con from 1.11484e-008 to 1.11485e-008
Heightened Def Con from 1.11485e-008 to 1.11485e-008
Heightened Def Con from 1.11485e-008 +to 1.11486e-008
Heightened Def Con from 1.11487e-008 to 1.11487e-008
Heightened Def Con from 1.11487e-008 to 1.11487e-008
Heightened Def Con from 1.11487e-008 to 1.11488e-008
Heightened Def Con from 1.11488e-008 to 1.11488e-008
Heightened Def Con from 1.11488e-008 to 1.11488e-008
Heightened Def Con from 1.11489e-008 to 1.11489e-008
Heightened Def Con from 1.11489e-008 to 1.11489e-008
Heightened Def Con from 1.11489e-008 to 1.11489e-008
Heightened Def Con from 1.11491e-008 to 1.11491e-008
Heightened Def Con from 1.11491e-008 to 1.11491e-008
Heightened Def Con from 1.11491e-008 to 1.11492e-008
Heightened Def Con from 1.11493e-008 to 1.11493e-008
Heightened Def Con from 1.11493e-008 to 1.11493e-008
Heightened Def Con from 1.11493e-008 to 1.11494e-008
Heightened Def Con from 1.11495e-008 to 1.11495e-008
Heightened Def Con from 1.11495e-008 to 1.11652e-008
Heightened Def Con from 1.11652e-008 to 1.11652e-008
Heightened Def Con from 1.11652e-008 to 1.11652e-008
Heightened Def Con from 1.11652e-008 +to 1.11672e-008
Heightened Def Con from 1.11676e-008 to 1.11677e-008
Heightened Def Con from 1.11678e-008 to 1.11679e-008
Heightened Def Con from 1.11679e-008 to 1.1168e-008
Heightened Def Con from 1.11681e-008 to 1.11684e-008
Heightened Def Con from 1.11686e-008 to 1.11691e-008
Heightened Def Con from 1.11691e-008 +to 1.11692e-008
Heightened Def Con from 1.11692e-008 to 1.11693e-008
Heightened Def Con from 1.11693e-008 to 1.11693e-008
Heightened Def Con from 1.11693e-008 to 1.11694e-008
Heightened Def Con from 1.11694e-008 +to 1.11694e-008
Heightened Def Con from 1.11694e-008 to 1.11694e-008
Heightened Def Con from 1.11694e-008 +to 1.11695e-008
Heightened Def Con from 1.11695e-008 to 1.11695e-008
Heightened Def Con from 1.11695e-008 to 1.11695e-008
Heightened Def Con from 1.11695e-008 +to 1.11695e-008
Heightened Def Con from 1.11695e-008 +to 1.11696e-008
Heightened Def Con from 1.11697e-008 +to 1.11697e-008
Heightened Def Con from 1.11698e-008 to 1.11698e-008
Heightened Def Con from 1.11698e-008 to 1.11699e-008
Heightened Def Con from 1.11699e-008 to 1.11699e-008
Heightened Def Con from 1.11702e-008 to 1.11702e-008
Heightened Def Con from 1.11703e-008 to 1.11703e-008
Heightened Def Con from 1.11703e-008 to 1.11704e-008
Heightened Def Con from 1.11707e-008 to 1.11707e-008
Heightened Def Con from 1.11708e-008 to 1.11708e-008
Heightened Def Con from 1.11708e-008 +to 1.11709e-008
Heightened Def Con from 1.11709e-008 to 1.11709e-008
Heightened Def Con from 1.11711e-008 to 1.11711e-008
Heightened Def Con from 1.11711e-008 +to 1.11711e-008
Heightened Def Con from 1.11714e-008 to 1.11714e-008
Heightened Def Con from 1.11714e-008 to 1.11717e-008
Heightened Def Con from 1.11718e-008 to 1.11718e-008
Heightened Def Con from 1.11719e-008 to 1.11719e-008
Heightened Def Con from 1.11719e-008 to 1.1172e-008
Heightened Def Con from 1.1172e-008 to 1.1172e-008
Heightened Def Con from 1.1172e-008 +to 1.1172e-008
Heightened Def Con from 1.1172e-008 to 1.11721e-008
Heightened Def Con from 1.11721e-008 to 1.11722e-008
Heightened Def Con from 1.11724e-008 to 1.11724e-008
Heightened Def Con from 1.11724e-008 to 1.11725e-008
Heightened Def Con from 1.11725e-008 to 1.11726e-008
Heightened Def Con from 1.11726e-008 to 1.11726e-008
Heightened Def Con from 1.11727e-008 +to 1.21727e-008
Heightened Def Con from 1.21728e-008 to 1.31728e-008
Heightened Def Con from 1.31729e-008 to 1.31729e-008
Heightened Def Con from 1.3173e-008 to 1.31731e-008
Heightened Def Con from 1.31731e-008 to 1.31731e-008
Heightened Def Con from 1.31731e-008 to 1.31731e-008
Heightened Def Con from 1.31731e-008 to 1.31731e-008
Heightened Def Con from 1.31731e-008 to 1.31732e-008
Heightened Def Con from 1.31732e-008 to 1.31732e-008
Heightened Def Con from 1.31732e-008 to 1.31733e-008
Heightened Def Con from 1.31733e-008 +to 1.31734e-008
Heightened Def Con from 1.31735e-008 +to 1.31736e-008
Heightened Def Con from 1.31738e-008 to 1.31738e-008
Heightened Def Con from 1.31738e-008 +to 1.31741e-008
Heightened Def Con from 1.31742e-008 to 1.31742e-008
Heightened Def Con from 1.31742e-008 to 1.31742e-008
Heightened Def Con from 1.31742e-008 to 1.31742e-008
Heightened Def Con from 1.31742e-008 to 1.31743e-008
Heightened Def Con from 1.31744e-008 to 1.31744e-008
Heightened Def Con from 1.31744e-008 to 1.31744e-008
Heightened Def Con from 1.31744e-008 to 1.31744e-008
Heightened Def Con from 1.31744e-008 to 1.31745e-008
Heightened Def Con from 1.31745e-008 to 1.31745e-008
Heightened Def Con from 1.31745e-008 to 1.31745e-008
Heightened Def Con from 1.31745e-008 to 1.31745e-008
Heightened Def Con from 1.31745e-008 to 1.31746e-008
Heightened Def Con from 1.31746e-008 to 1.31746e-008
Heightened Def Con from 1.31746e-008 to 1.31746e-008
Heightened Def Con from 1.31746e-008 +to 1.31746e-008
Heightened Def Con from 1.31747e-008 to 1.31747e-008
Heightened Def Con from 1.31747e-008 to 1.31747e-008
Heightened Def Con from 1.31748e-008 +to 1.31748e-008
Heightened Def Con from 1.31749e-008 to 1.3175e-008
Heightened Def Con from 1.3175e-008 to 1.3175e-008
Heightened Def Con from 1.3175e-008 to 1.31751e-008
Heightened Def Con from 1.31751e-008 to 1.31751e-008
Heightened Def Con from 1.31751e-008 to 1.31751e-008
Heightened Def Con from 1.31751e-008 +to 1.31754e-008
Heightened Def Con from 1.31756e-008 to 1.31756e-008
Heightened Def Con from 1.31756e-008 to 1.31756e-008
Heightened Def Con from 1.31756e-008 to 1.31756e-008
Heightened Def Con from 1.31756e-008 to 1.31756e-008
Heightened Def Con from 1.31756e-008 to 1.31757e-008
Heightened Def Con from 1.3176e-008 to 1.3176e-008
Heightened Def Con from 1.3176e-008 to 1.3176e-008
Heightened Def Con from 1.31762e-008 to 1.31762e-008
Heightened Def Con from 1.31762e-008 +to 1.31762e-008
Heightened Def Con from 1.31762e-008 to 1.31763e-008
Heightened Def Con from 1.31763e-008 to 1.31763e-008
Heightened Def Con from 1.31763e-008 to 1.31763e-008
Heightened Def Con from 1.31763e-008 to 1.31782e-008
Heightened Def Con from 1.31782e-008 to 1.31783e-008
Heightened Def Con from 1.31783e-008 to 1.31783e-008
Heightened Def Con from 1.31783e-008 to 1.31783e-008
Heightened Def Con from 1.31784e-008 to 1.31787e-008
Heightened Def Con from 1.31788e-008 to 1.31788e-008
Heightened Def Con from 1.31788e-008 to 1.31789e-008
Heightened Def Con from 1.31789e-008 to 1.31789e-008
Heightened Def Con from 1.3179e-008 to 1.3179e-008
Heightened Def Con from 1.3179e-008 to 1.31792e-008
Heightened Def Con from 1.31792e-008 +to 1.31793e-008
Heightened Def Con from 1.31794e-008 to 1.31794e-008
Heightened Def Con from 1.31795e-008 to 1.31796e-008
Heightened Def Con from 1.31796e-008 to 1.31796e-008
Heightened Def Con from 1.31796e-008 to 1.31796e-008
Heightened Def Con from 1.31798e-008 to 1.31798e-008
Heightened Def Con from 1.31799e-008 to 1.318e-008
Heightened Def Con from 1.318e-008 to 1.318e-008
Heightened Def Con from 1.31801e-008 to 1.31801e-008
Heightened Def Con from 1.31801e-008 to 1.31801e-008
Heightened Def Con from 1.31801e-008 +to 1.31801e-008
Heightened Def Con from 1.31801e-008 to 1.31801e-008
Heightened Def Con from 1.31801e-008 to 1.31801e-008
Heightened Def Con from 1.31801e-008 +to 1.31801e-008
Heightened Def Con from 1.31801e-008 to 1.31801e-008
Heightened Def Con from 1.31801e-008 +to 1.31804e-008
Heightened Def Con from 1.31804e-008 to 1.31804e-008
Heightened Def Con from 1.31804e-008 +to 1.31961e-008
Heightened Def Con from 1.31961e-008 to 1.31961e-008
Heightened Def Con from 1.31961e-008 to 1.31962e-008
Heightened Def Con from 1.31962e-008 to 1.31967e-008
Heightened Def Con from 1.31968e-008 to 1.31969e-008
Heightened Def Con from 1.31969e-008 to 1.31972e-008
Heightened Def Con from 1.31972e-008 to 1.31973e-008
Heightened Def Con from 1.31974e-008 to 1.31975e-008
Heightened Def Con from 1.31977e-008 to 1.31978e-008
Heightened Def Con from 1.31979e-008 to 1.3198e-008
Heightened Def Con from 1.3198e-008 to 1.3198e-008
Heightened Def Con from 1.3198e-008 to 1.31981e-008
Heightened Def Con from 1.31982e-008 to 1.31982e-008
Heightened Def Con from 1.31982e-008 to 1.31982e-008
Heightened Def Con from 1.31984e-008 to 1.31984e-008
Heightened Def Con from 1.31987e-008 to 1.31987e-008
Heightened Def Con from 1.31987e-008 to 1.31987e-008
Heightened Def Con from 1.31991e-008 +to 1.32011e-008
Heightened Def Con from 1.32012e-008 to 1.32012e-008
Heightened Def Con from 1.32016e-008 to 1.32017e-008
Heightened Def Con from 1.32018e-008 +to 1.3204e-008
Heightened Def Con from 1.32041e-008 to 1.32041e-008
Heightened Def Con from 1.32042e-008 to 1.32042e-008
Heightened Def Con from 1.32047e-008 to 1.32047e-008
Heightened Def Con from 1.32047e-008 to 1.32047e-008
Heightened Def Con from 1.32047e-008 to 1.32047e-008
Heightened Def Con from 1.32047e-008 to 1.3205e-008
Heightened Def Con from 1.3205e-008 to 1.3205e-008
Heightened Def Con from 1.32051e-008 to 1.32052e-008
Heightened Def Con from 1.32052e-008 to 1.32053e-008
Heightened Def Con from 1.32053e-008 to 1.32056e-008
Heightened Def Con from 1.32058e-008 to 1.3206e-008
Heightened Def Con from 1.3206e-008 to 1.32063e-008
Heightened Def Con from 1.32063e-008 to 1.32063e-008
Heightened Def Con from 1.32063e-008 to 1.32063e-008
Heightened Def Con from 1.32063e-008 to 1.32063e-008
Heightened Def Con from 1.32063e-008 +to 1.32064e-008
Heightened Def Con from 1.32065e-008 to 1.32066e-008
Heightened Def Con from 1.32067e-008 to 1.32067e-008
Heightened Def Con from 1.32067e-008 to 1.32068e-008
Heightened Def Con from 1.32068e-008 to 1.32068e-008
Heightened Def Con from 1.32068e-008 to 1.32069e-008
Heightened Def Con from 1.32069e-008 +to 1.32072e-008
Heightened Def Con from 1.32073e-008 to 1.32073e-008
Heightened Def Con from 1.32075e-008 to 1.32075e-008
Heightened Def Con from 1.32076e-008 to 1.32076e-008
Heightened Def Con from 1.32076e-008 +to 1.32077e-008
Heightened Def Con from 1.32079e-008 to 1.3208e-008
Heightened Def Con from 1.32081e-008 to 1.32082e-008
Heightened Def Con from 1.32082e-008 +to 1.32083e-008
Heightened Def Con from 1.32083e-008 to 1.32084e-008
Heightened Def Con from 1.32084e-008 to 1.32084e-008
Heightened Def Con from 1.32084e-008 to 1.32085e-008
Heightened Def Con from 1.32085e-008 to 1.32085e-008
Heightened Def Con from 1.32085e-008 to 1.32085e-008
Heightened Def Con from 1.32085e-008 to 1.32085e-008
Heightened Def Con from 1.32085e-008 to 1.32085e-008
Heightened Def Con from 1.32085e-008 +to 1.32086e-008
Heightened Def Con from 1.32086e-008 +to 1.32086e-008
Heightened Def Con from 1.32086e-008 to 1.32086e-008
Heightened Def Con from 1.32086e-008 +to 1.32087e-008
Heightened Def Con from 1.32087e-008 to 1.32088e-008
Heightened Def Con from 1.32089e-008 +to 1.32089e-008
Heightened Def Con from 1.32089e-008 to 1.32089e-008
Heightened Def Con from 1.32089e-008 to 1.32089e-008
Heightened Def Con from 1.32089e-008 to 1.32091e-008
Heightened Def Con from 1.32092e-008 to 1.32092e-008
Heightened Def Con from 1.32092e-008 to 1.32092e-008
Heightened Def Con from 1.32092e-008 to 1.32092e-008
Heightened Def Con from 1.32092e-008 to 1.32093e-008
Heightened Def Con from 1.32093e-008 +to 1.32093e-008
Heightened Def Con from 1.32094e-008 to 1.32095e-008
Heightened Def Con from 1.32095e-008 to 1.32095e-008
Heightened Def Con from 1.32096e-008 to 1.32096e-008
Heightened Def Con from 1.32096e-008 to 1.32097e-008
Heightened Def Con from 1.32097e-008 to 1.32097e-008
Heightened Def Con from 1.32097e-008 to 1.32097e-008
Heightened Def Con from 1.32097e-008 to 1.32097e-008
Heightened Def Con from 1.32097e-008 to 1.32097e-008
Heightened Def Con from 1.32097e-008 to 1.32097e-008
Heightened Def Con from 1.32098e-008 to 1.32101e-008
Heightened Def Con from 1.32101e-008 to 1.32101e-008
Heightened Def Con from 1.32101e-008 to 1.32101e-008
Heightened Def Con from 1.32101e-008 to 1.32102e-008
Heightened Def Con from 1.32102e-008 to 1.32102e-008
Heightened Def Con from 1.32102e-008 to 1.32103e-008
Heightened Def Con from 1.32103e-008 to 1.32262e-008
Heightened Def Con from 1.32262e-008 +to 1.32263e-008
Heightened Def Con from 1.32263e-008 to 1.32264e-008
Heightened Def Con from 1.32265e-008 to 1.32265e-008
Heightened Def Con from 1.32265e-008 +to 1.32268e-008
Heightened Def Con from 1.32268e-008 +to 1.32268e-008
Heightened Def Con from 1.32268e-008 to 1.32271e-008
Heightened Def Con from 1.32271e-008 +to 1.32272e-008
Heightened Def Con from 1.32273e-008 +to 1.32278e-008
Heightened Def Con from 1.32278e-008 to 1.32279e-008
Heightened Def Con from 1.32279e-008 to 1.3228e-008
Heightened Def Con from 1.32281e-008 to 1.32281e-008
Heightened Def Con from 1.32281e-008 +to 1.32281e-008
Heightened Def Con from 1.32281e-008 to 1.32284e-008
Heightened Def Con from 1.32284e-008 to 1.32285e-008
Heightened Def Con from 1.32285e-008 to 1.32285e-008
Heightened Def Con from 1.32285e-008 +to 1.32285e-008
Heightened Def Con from 1.32287e-008 to 1.32288e-008
Heightened Def Con from 1.3229e-008 to 1.3229e-008
Heightened Def Con from 1.32291e-008 to 1.32291e-008
Heightened Def Con from 1.32291e-008 to 1.32291e-008
Heightened Def Con from 1.32291e-008 to 1.32292e-008
Heightened Def Con from 1.32292e-008 to 1.32293e-008
Heightened Def Con from 1.32293e-008 to 1.32296e-008
Heightened Def Con from 1.32296e-008 to 1.32296e-008
Heightened Def Con from 1.32296e-008 to 1.32296e-008
Heightened Def Con from 1.32296e-008 to 1.32296e-008
Heightened Def Con from 1.32296e-008 to 1.32296e-008
Heightened Def Con from 1.32296e-008 to 1.32296e-008
Heightened Def Con from 1.32298e-008 to 1.32298e-008
Heightened Def Con from 1.32299e-008 to 1.32299e-008
Heightened Def Con from 1.32299e-008 to 1.323e-008
Heightened Def Con from 1.323e-008 to 1.323e-008
Heightened Def Con from 1.32301e-008 to 1.32301e-008
Heightened Def Con from 1.32301e-008 to 1.32301e-008
Heightened Def Con from 1.32301e-008 to 1.32304e-008
Heightened Def Con from 1.32305e-008 to 1.32305e-008
Heightened Def Con from 1.32305e-008 to 1.32461e-008
Heightened Def Con from 1.32461e-008 to 1.32462e-008
Heightened Def Con from 1.32462e-008 to 1.32462e-008
Heightened Def Con from 1.32462e-008 to 1.32482e-008
Heightened Def Con from 1.32482e-008 to 1.32482e-008
Heightened Def Con from 1.32482e-008 to 1.32502e-008
Heightened Def Con from 1.32502e-008 to 1.32503e-008
Heightened Def Con from 1.32503e-008 to 1.32503e-008
Heightened Def Con from 1.32504e-008 to 1.32504e-008
Heightened Def Con from 1.32504e-008 to 1.32505e-008
Heightened Def Con from 1.32505e-008 +to 1.32507e-008
Heightened Def Con from 1.32507e-008 to 1.3251e-008
Heightened Def Con from 1.3251e-008 to 1.3251e-008
Heightened Def Con from 1.3251e-008 +to 1.32511e-008
Heightened Def Con from 1.32512e-008 to 1.32514e-008
Heightened Def Con from 1.32514e-008 +to 1.32515e-008
Heightened Def Con from 1.32516e-008 to 1.32516e-008
Heightened Def Con from 1.32516e-008 to 1.32516e-008
Heightened Def Con from 1.32516e-008 to 1.32517e-008
[...]
Heightened Def Con from 5.24816e-008 to 5.24816e-008
Heightened Def Con from 5.24816e-008 to 5.24816e-008
Heightened Def Con from 5.24816e-008 to 5.24817e-008
Heightened Def Con from 5.24817e-008 to 5.24817e-008
Heightened Def Con from 5.24817e-008 to 5.24817e-008
Heightened Def Con from 5.24817e-008 to 5.24817e-008
Heightened Def Con from 5.24817e-008 to 5.24817e-008
Heightened Def Con from 5.24817e-008 to 5.24817e-008
Heightened Def Con from 5.24817e-008 +to 5.24973e-008
Heightened Def Con from 5.24978e-008 to 5.24986e-008
Heightened Def Con from 5.24986e-008 +to 5.24987e-008
Heightened Def Con from 5.24987e-008 to 5.2499e-008
Heightened Def Con from 5.24993e-008 to 5.24994e-008
Heightened Def Con from 5.24994e-008 to 5.24995e-008
Heightened Def Con from 5.24997e-008 to 5.24997e-008
Heightened Def Con from 5.24997e-008 to 5.25017e-008
Heightened Def Con from 5.25018e-008 to 5.25018e-008
Heightened Def Con from 5.25018e-008 to 5.2502e-008
Heightened Def Con from 5.2502e-008 to 5.2502e-008
Heightened Def Con from 5.2502e-008 to 5.2502e-008
Heightened Def Con from 5.2502e-008 to 5.25021e-008
Heightened Def Con from 5.25021e-008 +to 5.25021e-008
Heightened Def Con from 5.25021e-008 +to 5.25022e-008
Heightened Def Con from 5.25022e-008 to 5.25022e-008
Heightened Def Con from 5.25022e-008 to 5.25022e-008
Heightened Def Con from 5.25022e-008 to 5.25025e-008
Heightened Def Con from 5.25026e-008 to 5.25026e-008
Heightened Def Con from 5.25027e-008 to 5.25027e-008
Heightened Def Con from 5.25027e-008 to 5.25028e-008
Heightened Def Con from 5.25028e-008 +to 5.2503e-008
Heightened Def Con from 5.25031e-008 to 5.25031e-008
Heightened Def Con from 5.25031e-008 to 5.25032e-008
Heightened Def Con from 5.25032e-008 to 5.25032e-008
Heightened Def Con from 5.25032e-008 to 5.25033e-008
Heightened Def Con from 5.25033e-008 +to 5.25033e-008
Heightened Def Con from 5.25033e-008 +to 5.25033e-008
Heightened Def Con from 5.25034e-008 to 5.25034e-008
Heightened Def Con from 5.25034e-008 to 5.25035e-008
Heightened Def Con from 5.25038e-008 to 5.25038e-008
Heightened Def Con from 5.2504e-008 to 5.2504e-008
Heightened Def Con from 5.2504e-008 to 5.25043e-008
Heightened Def Con from 5.25044e-008 to 5.25045e-008
Heightened Def Con from 5.25046e-008 to 5.25046e-008
Heightened Def Con from 5.25046e-008 to 5.25046e-008
Heightened Def Con from 5.25046e-008 to 5.25046e-008
Heightened Def Con from 5.25046e-008 to 5.25046e-008
Heightened Def Con from 5.25046e-008 to 5.25047e-008
Heightened Def Con from 5.25048e-008 to 5.25048e-008
Heightened Def Con from 5.25049e-008 to 5.2505e-008
Heightened Def Con from 5.2505e-008 +to 5.2505e-008
Heightened Def Con from 5.2505e-008 to 5.25051e-008
Heightened Def Con from 5.25052e-008 to 5.25053e-008
Heightened Def Con from 5.25054e-008 to 5.25054e-008
Heightened Def Con from 5.25054e-008 to 5.25055e-008
Heightened Def Con from 5.25055e-008 to 5.25056e-008
Heightened Def Con from 5.25057e-008 +to 5.25058e-008
Heightened Def Con from 5.25059e-008 to 5.25059e-008
Heightened Def Con from 5.25059e-008 +to 5.2506e-008
Heightened Def Con from 5.25061e-008 to 5.25061e-008
Heightened Def Con from 5.25061e-008 to 5.25061e-008
Heightened Def Con from 5.25062e-008 to 5.25062e-008
Heightened Def Con from 5.25062e-008 to 5.25062e-008
Heightened Def Con from 5.25063e-008 to 5.25063e-008
Heightened Def Con from 5.25064e-008 to 5.25065e-008
Heightened Def Con from 5.25065e-008 +to 5.25066e-008
Heightened Def Con from 5.25066e-008 to 5.25066e-008
Heightened Def Con from 5.25067e-008 +to 5.25067e-008
Heightened Def Con from 5.25068e-008 to 5.25068e-008
Heightened Def Con from 5.2507e-008 to 5.2507e-008
Heightened Def Con from 5.2507e-008 to 5.25071e-008
Heightened Def Con from 5.25071e-008 to 5.25071e-008
Heightened Def Con from 5.25072e-008 to 5.25072e-008
Heightened Def Con from 5.25072e-008 to 5.25072e-008
Heightened Def Con from 5.25072e-008 to 5.25072e-008
Heightened Def Con from 5.25072e-008 to 5.25072e-008
Heightened Def Con from 5.25073e-008 to 5.25073e-008
Heightened Def Con from 5.25073e-008 to 5.25073e-008
Heightened Def Con from 5.25074e-008 to 5.25074e-008
Heightened Def Con from 5.25074e-008 to 5.25074e-008
Heightened Def Con from 5.25074e-008 to 5.25074e-008
Heightened Def Con from 5.25076e-008 to 5.25077e-008
Heightened Def Con from 5.25077e-008 to 5.25077e-008
Heightened Def Con from 5.25077e-008 to 5.25078e-008
Heightened Def Con from 5.25078e-008 to 5.25078e-008
Heightened Def Con from 5.25078e-008 +to 5.25078e-008
Heightened Def Con from 5.25079e-008 +to 5.25079e-008
Heightened Def Con from 5.25079e-008 to 5.25079e-008
Heightened Def Con from 5.25081e-008 to 5.25081e-008
Heightened Def Con from 5.25081e-008 to 5.25081e-008
Heightened Def Con from 5.25081e-008 to 5.25081e-008
Heightened Def Con from 5.25082e-008 to 5.25082e-008
Heightened Def Con from 5.25082e-008 to 5.25082e-008
Heightened Def Con from 5.25082e-008 +to 5.25082e-008
Heightened Def Con from 5.25084e-008 to 5.25087e-008
Heightened Def Con from 5.25088e-008 to 5.25088e-008
Heightened Def Con from 5.25088e-008 to 5.25088e-008
Heightened Def Con from 5.25088e-008 to 5.25089e-008
Heightened Def Con from 5.25089e-008 to 5.25089e-008
Heightened Def Con from 5.25089e-008 +to 5.25089e-008
Heightened Def Con from 5.25089e-008 to 5.25089e-008
Heightened Def Con from 5.25089e-008 +to 5.25089e-008
Heightened Def Con from 5.2509e-008 +to 5.25092e-008
Heightened Def Con from 5.25095e-008 to 5.25095e-008
Heightened Def Con from 5.25095e-008 to 5.25095e-008
Heightened Def Con from 5.25095e-008 to 5.25095e-008
Heightened Def Con from 5.25095e-008 to 5.25096e-008
Heightened Def Con from 5.25097e-008 to 5.25098e-008
Heightened Def Con from 5.25098e-008 to 5.25098e-008
Heightened Def Con from 5.25098e-008 +to 5.25099e-008
Heightened Def Con from 5.25099e-008 +to 5.25099e-008
Heightened Def Con from 5.25099e-008 to 5.25099e-008
Heightened Def Con from 5.251e-008 to 5.251e-008
Heightened Def Con from 5.25101e-008 to 5.25101e-008
Heightened Def Con from 5.25102e-008 to 5.25102e-008
Heightened Def Con from 5.25103e-008 to 5.25103e-008
Heightened Def Con from 5.25103e-008 to 5.25103e-008
Heightened Def Con from 5.25104e-008 to 5.25104e-008
Heightened Def Con from 5.25104e-008 to 5.25104e-008
Heightened Def Con from 5.25104e-008 to 5.25104e-008
Heightened Def Con from 5.25104e-008 +to 5.25106e-008
Heightened Def Con from 5.25107e-008 to 5.25108e-008
Heightened Def Con from 5.25109e-008 to 5.25109e-008
Heightened Def Con from 5.25109e-008 to 5.25109e-008
Heightened Def Con from 5.25109e-008 to 5.25109e-008
Heightened Def Con from 5.25109e-008 to 5.25109e-008
Heightened Def Con from 5.25109e-008 to 5.2511e-008
Heightened Def Con from 5.2511e-008 to 5.2511e-008
Heightened Def Con from 5.2511e-008 +to 5.25111e-008
Heightened Def Con from 5.25111e-008 to 5.25111e-008
Heightened Def Con from 5.25111e-008 to 5.25111e-008
Heightened Def Con from 5.25113e-008 to 5.25113e-008
Heightened Def Con from 5.25113e-008 to 5.25113e-008
Heightened Def Con from 5.25113e-008 to 5.25113e-008
Heightened Def Con from 5.25113e-008 to 5.25113e-008
Heightened Def Con from 5.25113e-008 to 5.25113e-008
Heightened Def Con from 5.25113e-008 to 5.25113e-008
Heightened Def Con from 5.25115e-008 to 5.25115e-008
Heightened Def Con from 5.25115e-008 +to 5.25116e-008
Heightened Def Con from 5.25116e-008 to 5.25116e-008
Heightened Def Con from 5.25116e-008 to 5.25119e-008
Heightened Def Con from 5.25119e-008 to 5.2512e-008
Heightened Def Con from 5.2512e-008 to 5.2512e-008
Heightened Def Con from 5.25121e-008 to 5.25121e-008
Heightened Def Con from 5.25121e-008 +to 5.25122e-008
Heightened Def Con from 5.25122e-008 to 5.25122e-008
Heightened Def Con from 5.25126e-008 to 5.25126e-008
Heightened Def Con from 5.25126e-008 to 5.25126e-008
Heightened Def Con from 5.25127e-008 to 5.25127e-008
Heightened Def Con from 5.25127e-008 to 5.25128e-008
Heightened Def Con from 5.25128e-008 to 5.25128e-008
Heightened Def Con from 5.25128e-008 to 5.25128e-008
Heightened Def Con from 5.25129e-008 to 5.25129e-008
Heightened Def Con from 5.25129e-008 to 5.25129e-008
Heightened Def Con from 5.25129e-008 to 5.2513e-008
Heightened Def Con from 5.2513e-008 to 5.2513e-008
Heightened Def Con from 5.2513e-008 +to 5.2513e-008
Heightened Def Con from 5.25131e-008 to 5.25131e-008
Heightened Def Con from 5.25131e-008 to 5.25131e-008
Heightened Def Con from 5.25131e-008 to 5.25132e-008
Heightened Def Con from 5.25132e-008 to 5.25132e-008
Heightened Def Con from 5.25132e-008 to 5.25132e-008
Heightened Def Con from 5.25133e-008 to 5.25136e-008
Heightened Def Con from 5.25136e-008 to 5.25136e-008
Heightened Def Con from 5.25137e-008 to 5.25137e-008
Heightened Def Con from 5.25137e-008 to 5.25137e-008
Heightened Def Con from 5.25137e-008 to 5.25138e-008
Heightened Def Con from 5.25138e-008 to 5.25139e-008
Heightened Def Con from 5.25139e-008 to 5.25139e-008
Heightened Def Con from 5.25139e-008 to 5.25139e-008
Heightened Def Con from 5.25139e-008 to 5.2514e-008
Heightened Def Con from 5.2514e-008 to 5.2514e-008
Heightened Def Con from 5.2514e-008 to 5.25141e-008
Heightened Def Con from 5.25141e-008 to 5.25141e-008
Heightened Def Con from 5.25141e-008 to 5.25141e-008
Heightened Def Con from 5.25141e-008 ++to 5.25141e-008
Heightened Def Con from 5.25142e-008 to 5.25145e-008
Heightened Def Con from 5.25146e-008 to 5.25146e-008
Heightened Def Con from 5.25146e-008 to 5.25146e-008
Heightened Def Con from 5.25147e-008 to 5.25147e-008
Heightened Def Con from 5.25148e-008 to 5.25148e-008
Heightened Def Con from 5.25149e-008 to 5.25149e-008
Heightened Def Con from 5.25149e-008 to 5.25149e-008
Heightened Def Con from 5.25149e-008 +to 5.25152e-008
Heightened Def Con from 5.25152e-008 to 5.25153e-008
Heightened Def Con from 5.25153e-008 to 5.25153e-008
Heightened Def Con from 5.25155e-008 +to 5.25155e-008
Heightened Def Con from 5.25155e-008 +to 5.25156e-008
Heightened Def Con from 5.25156e-008 +to 5.25156e-008
Heightened Def Con from 5.25156e-008 to 5.25156e-008
Heightened Def Con from 5.25156e-008 to 5.25156e-008
Heightened Def Con from 5.25156e-008 +to 5.25156e-008
Heightened Def Con from 5.25156e-008 +to 5.25156e-008
Heightened Def Con from 5.25157e-008 to 5.25157e-008
Heightened Def Con from 5.25157e-008 to 5.25157e-008
Heightened Def Con from 5.25157e-008 to 5.25157e-008
Heightened Def Con from 5.25157e-008 +to 5.25157e-008
Heightened Def Con from 5.25158e-008 +to 5.25158e-008
Heightened Def Con from 5.25159e-008 to 5.25159e-008
Heightened Def Con from 5.25159e-008 +to 5.25162e-008
Heightened Def Con from 5.25163e-008 to 5.25163e-008
Heightened Def Con from 5.25164e-008 to 5.25164e-008
Heightened Def Con from 5.25164e-008 +to 5.25169e-008
Heightened Def Con from 5.2517e-008 to 5.25171e-008
Heightened Def Con from 5.25175e-008 to 5.25176e-008
Heightened Def Con from 5.25177e-008 to 5.25177e-008
Heightened Def Con from 5.25178e-008 to 5.25178e-008
Heightened Def Con from 5.25178e-008 to 5.25179e-008
Heightened Def Con from 5.25179e-008 to 5.25179e-008
Heightened Def Con from 5.25181e-008 to 5.25181e-008
Heightened Def Con from 5.25185e-008 +to 5.25185e-008
Heightened Def Con from 5.25185e-008 +to 5.25188e-008
Heightened Def Con from 5.25189e-008 to 5.25189e-008
Heightened Def Con from 5.25189e-008 to 5.25189e-008
Heightened Def Con from 5.25189e-008 to 5.25189e-008
Heightened Def Con from 5.25189e-008 +to 5.25189e-008
Heightened Def Con from 5.25189e-008 to 5.25189e-008
Heightened Def Con from 5.2519e-008 +to 5.2519e-008
Heightened Def Con from 5.2519e-008 to 5.2519e-008
Heightened Def Con from 5.2519e-008 to 5.2519e-008
Heightened Def Con from 5.2519e-008 to 5.2519e-008
Heightened Def Con from 5.2519e-008 to 5.2519e-008
Heightened Def Con from 5.2519e-008 +to 5.25191e-008
Heightened Def Con from 5.25192e-008 +to 5.25192e-008
Heightened Def Con from 5.25192e-008 to 5.25193e-008
Heightened Def Con from 5.25193e-008 to 5.25193e-008
Heightened Def Con from 5.25193e-008 +to 5.25194e-008
Heightened Def Con from 5.25194e-008 to 5.25213e-008
Heightened Def Con from 5.25213e-008 +to 5.25214e-008
Heightened Def Con from 5.25214e-008 to 5.25214e-008
Heightened Def Con from 5.25214e-008 to 5.25214e-008
Heightened Def Con from 5.25215e-008 to 5.25215e-008
Heightened Def Con from 5.25215e-008 +to 5.25215e-008
Heightened Def Con from 5.25216e-008 to 5.25216e-008
Heightened Def Con from 5.25216e-008 to 5.25216e-008
Heightened Def Con from 5.25216e-008 to 5.25216e-008
Heightened Def Con from 5.25216e-008 +to 5.25217e-008
Heightened Def Con from 5.25217e-008 to 5.25217e-008
Heightened Def Con from 5.25217e-008 to 5.25217e-008
Heightened Def Con from 5.25219e-008 to 5.2522e-008
Heightened Def Con from 5.2522e-008 to 5.2522e-008
Heightened Def Con from 5.2522e-008 to 5.25221e-008
Heightened Def Con from 5.25221e-008 to 5.25221e-008
Heightened Def Con from 5.25221e-008 to 5.25221e-008
Heightened Def Con from 5.25222e-008 to 5.25222e-008
Heightened Def Con from 5.25223e-008 +to 5.25223e-008
Heightened Def Con from 5.25223e-008 to 5.25224e-008
Heightened Def Con from 5.25224e-008 to 5.25225e-008
Heightened Def Con from 5.25226e-008 +to 5.25226e-008
Heightened Def Con from 5.25227e-008 to 5.25227e-008
Heightened Def Con from 5.25227e-008 to 5.25228e-008
Heightened Def Con from 5.25229e-008 to 5.2523e-008
Heightened Def Con from 5.2523e-008 +to 5.25232e-008
Heightened Def Con from 5.25232e-008 to 5.25232e-008
Heightened Def Con from 5.25233e-008 to 5.25233e-008
Heightened Def Con from 5.25234e-008 to 5.25234e-008
Heightened Def Con from 5.25234e-008 to 5.25234e-008
Heightened Def Con from 5.25234e-008 to 5.25234e-008
Heightened Def Con from 5.25234e-008 +to 5.25234e-008
Heightened Def Con from 5.25235e-008 to 5.25235e-008
Heightened Def Con from 5.25235e-008 to 5.25235e-008
Heightened Def Con from 5.25235e-008 to 5.25235e-008
Heightened Def Con from 5.25235e-008 +to 5.25236e-008
Heightened Def Con from 5.25237e-008 to 5.25237e-008
Heightened Def Con from 5.25237e-008 to 5.25237e-008
Heightened Def Con from 5.25237e-008 to 5.25237e-008
Heightened Def Con from 5.25242e-008 to 5.25242e-008
Heightened Def Con from 5.25242e-008 to 5.25243e-008
Heightened Def Con from 5.25243e-008 to 5.25244e-008
Heightened Def Con from 5.25244e-008 to 5.25244e-008
Heightened Def Con from 5.25244e-008 to 5.25244e-008
Heightened Def Con from 5.25245e-008 to 5.25245e-008
Heightened Def Con from 5.25245e-008 to 5.25245e-008
Heightened Def Con from 5.25245e-008 to 5.25246e-008
Heightened Def Con from 5.25247e-008 to 5.25247e-008
Heightened Def Con from 5.25248e-008 to 5.25249e-008
Heightened Def Con from 5.25251e-008 to 5.25252e-008
Heightened Def Con from 5.25253e-008 to 5.25253e-008
Heightened Def Con from 5.25255e-008 to 5.25255e-008
Heightened Def Con from 5.25255e-008 to 5.25255e-008
Heightened Def Con from 5.25256e-008 to 5.25256e-008
Heightened Def Con from 5.25256e-008 to 5.25256e-008
Heightened Def Con from 5.25256e-008 to 5.25256e-008
Heightened Def Con from 5.25256e-008 to 5.25256e-008
Heightened Def Con from 5.25256e-008 to 5.25256e-008
Heightened Def Con from 5.25256e-008 to 5.25276e-008
Heightened Def Con from 5.25276e-008 to 5.25279e-008
Heightened Def Con from 5.25279e-008 to 5.2528e-008
Heightened Def Con from 5.2528e-008 to 5.25281e-008
Heightened Def Con from 5.25281e-008 to 5.25281e-008
Heightened Def Con from 5.25282e-008 to 5.25282e-008
Heightened Def Con from 5.25282e-008 to 5.25282e-008
Heightened Def Con from 5.25282e-008 to 5.25282e-008
Heightened Def Con from 5.25282e-008 to 5.25283e-008
Heightened Def Con from 5.25285e-008 to 5.25285e-008
Heightened Def Con from 5.25285e-008 to 5.25286e-008
Heightened Def Con from 5.25286e-008 to 5.25286e-008
Heightened Def Con from 5.25286e-008 +to 5.25289e-008
Heightened Def Con from 5.25289e-008 to 5.25289e-008
Heightened Def Con from 5.2529e-008 +to 5.2529e-008
Heightened Def Con from 5.25291e-008 to 5.25291e-008
Heightened Def Con from 5.25291e-008 to 5.25292e-008
Heightened Def Con from 5.25292e-008 to 5.25292e-008
Heightened Def Con from 5.25292e-008 to 5.25293e-008
Heightened Def Con from 5.25293e-008 to 5.25293e-008
Heightened Def Con from 5.25293e-008 to 5.25293e-008
Heightened Def Con from 5.25293e-008 +to 5.25293e-008
Heightened Def Con from 5.25293e-008 +to 5.25293e-008
Heightened Def Con from 5.25293e-008 to 5.25293e-008
Heightened Def Con from 5.25294e-008 to 5.25294e-008
Heightened Def Con from 5.25294e-008 to 5.25294e-008
Heightened Def Con from 5.25294e-008 to 5.25294e-008
Heightened Def Con from 5.25294e-008 to 5.25294e-008
Heightened Def Con from 5.25294e-008 +to 5.25294e-008
Heightened Def Con from 5.25294e-008 +to 5.25295e-008
Heightened Def Con from 5.25295e-008 to 5.25295e-008
Heightened Def Con from 5.25295e-008 to 5.25295e-008
Heightened Def Con from 5.25295e-008 +to 5.25295e-008
Heightened Def Con from 5.25295e-008 to 5.25295e-008
Heightened Def Con from 5.25295e-008 +to 5.25296e-008
Heightened Def Con from 5.25296e-008 +to 5.25297e-008
Heightened Def Con from 5.25298e-008 to 5.25299e-008
Heightened Def Con from 5.25299e-008 +to 5.25302e-008
Heightened Def Con from 5.25304e-008 +to 5.25304e-008
Heightened Def Con from 5.25304e-008 to 5.25304e-008
Heightened Def Con from 5.25304e-008 to 5.25304e-008
Heightened Def Con from 5.25304e-008 to 5.25304e-008
Heightened Def Con from 5.25304e-008 +to 5.25304e-008
Heightened Def Con from 5.25304e-008 to 5.25305e-008
Heightened Def Con from 5.25305e-008 to 5.25305e-008
Heightened Def Con from 5.25305e-008 to 5.25307e-008
Heightened Def Con from 5.25307e-008 to 5.25307e-008
Heightened Def Con from 5.25307e-008 to 5.25307e-008
Heightened Def Con from 5.25311e-008 to 5.25311e-008
Heightened Def Con from 5.25311e-008 to 5.25314e-008
Heightened Def Con from 5.25314e-008 to 5.25315e-008
Heightened Def Con from 5.25317e-008 to 5.25317e-008
Heightened Def Con from 5.25318e-008 +to 5.25318e-008
Heightened Def Con from 5.25318e-008 to 5.25319e-008
Heightened Def Con from 5.25319e-008 to 5.25319e-008
Heightened Def Con from 5.25319e-008 to 5.2532e-008
Heightened Def Con from 5.25321e-008 to 5.25321e-008
Heightened Def Con from 5.25321e-008 to 5.25322e-008
Heightened Def Con from 5.25323e-008 to 5.25323e-008
Heightened Def Con from 5.25323e-008 to 5.25323e-008
Heightened Def Con from 5.25323e-008 to 5.25323e-008
Heightened Def Con from 5.25323e-008 to 5.25323e-008
Heightened Def Con from 5.25323e-008 to 5.25324e-008
Heightened Def Con from 5.25324e-008 +to 5.25324e-008
Heightened Def Con from 5.25324e-008 to 5.25325e-008
Heightened Def Con from 5.25325e-008 to 5.25325e-008
Heightened Def Con from 5.25325e-008 to 5.25326e-008
Heightened Def Con from 5.25326e-008 to 5.25326e-008
Heightened Def Con from 5.25326e-008 +to 5.25326e-008
Heightened Def Con from 5.25326e-008 to 5.25327e-008
Heightened Def Con from 5.25328e-008 to 5.25328e-008
Heightened Def Con from 5.25328e-008 to 5.25329e-008
Heightened Def Con from 5.25329e-008 to 5.25329e-008
Heightened Def Con from 5.2533e-008 to 5.2533e-008
Heightened Def Con from 5.2533e-008 to 5.2533e-008
Heightened Def Con from 5.2533e-008 +to 5.2533e-008
Heightened Def Con from 5.2533e-008 to 5.2533e-008
Heightened Def Con from 5.2533e-008 to 5.2533e-008
Heightened Def Con from 5.2533e-008 +to 5.2533e-008
Heightened Def Con from 5.25331e-008 to 5.25331e-008
Heightened Def Con from 5.25332e-008 to 5.25332e-008
Heightened Def Con from 5.25332e-008 +to 5.25332e-008
Heightened Def Con from 5.25332e-008 to 5.25332e-008
Heightened Def Con from 5.25333e-008 to 5.25334e-008
Heightened Def Con from 5.25337e-008 to 5.25337e-008
Heightened Def Con from 5.25338e-008 to 5.25338e-008

Date: Mon May 15 08:57:15 2023
Total elapsed time: 29.444 seconds.

tnom = 27
temp = 27
method = modified trap
totiter = 5808965
traniter = 5808932
tranpoints = 656650
accept = 248829
rejected = 440183
matrix size = 36
fillins = 35
solver = Normal
Matrix Compiler1: 3.48 KB object code size  1.3/0.5/[0.4]
Matrix Compiler2: off  [0.4]/0.5/0.4

