Circuit: * C:\users\leonardo\Desktop\FSAE\inverter-simulation\main-attempt\inverter-spice.asc

Direct Newton iteration failed to find .op point.  (Use ".option noopiter" to skip.)
Starting Gmin stepping
Gmin = 10
Gmin = 1.07374
Gmin = 0.115292
Gmin = 0.0123794
Gmin = 0.00132923
Gmin = 0.000142725
Gmin = 1.5325e-005
Gmin = 1.6455e-006
Gmin = 1.76685e-007
Gmin = 1.89714e-008
vernier = 0.5
Gmin = 3.18287e-009
vernier = 0.666667
vernier = 0.333333
vernier = 0.166667
Gmin = 1.45338e-009
vernier = 0.0833333
vernier = 0.0416667
vernier = 0.0208333
Gmin = 1.2792e-009
vernier = 0.0104167
vernier = 0.00520833
vernier = 0.00260417
vernier = 0.00130208
vernier = 0.000651042
Gmin = 1.28502e-009
vernier = 0.000868055
vernier = 0.000434028
Gmin = 0
Gmin stepping succeeded in finding the operating point.

Changing Tseed to 1e-010
Changing Tseed to 1e-012
Changing Tseed to 1e-009
Changing Tseed to 1e-013
Changing Tseed to 1e-008
Changing Tseed to 1e-014
Changing Tseed to 1e-007
Heightened Def Con from 1e-007 to 1e-007
Heightened Def Con from 1e-007 to 1.00004e-007
Heightened Def Con from 1.00004e-007 to 1.00004e-007
Heightened Def Con from 1.00004e-007 to 1.00006e-007
Heightened Def Con from 1.00007e-007 to 1.00022e-007
Heightened Def Con from 1.00022e-007 to 1.00022e-007
Heightened Def Con from 1.00023e-007 to 1.00023e-007
Heightened Def Con from 1.00023e-007 to 1.00023e-007
Heightened Def Con from 1.00024e-007 to 1.00149e-007
Heightened Def Con from 1.00149e-007 to 1.00149e-007
Heightened Def Con from 1.00149e-007 to 1.02149e-007
Heightened Def Con from 1.02149e-007 to 1.02149e-007
Heightened Def Con from 1.02149e-007 to 1.02149e-007
Heightened Def Con from 1.02149e-007 to 1.03149e-007
Heightened Def Con from 1.0315e-007 to 1.0315e-007
Heightened Def Con from 1.03151e-007 to 1.03151e-007
Heightened Def Con from 1.03151e-007 to 1.03526e-007
Heightened Def Con from 1.03526e-007 to 1.03526e-007
Heightened Def Con from 1.03526e-007 to 1.03526e-007
Heightened Def Con from 1.03526e-007 to 1.03528e-007
Heightened Def Con from 1.03528e-007 to 1.0353e-007
Heightened Def Con from 1.0353e-007 to 1.03532e-007
Heightened Def Con from 1.03532e-007 to 1.03657e-007
Heightened Def Con from 1.03658e-007 to 1.0366e-007
Heightened Def Con from 1.0366e-007 to 1.03662e-007
Heightened Def Con from 1.03662e-007 to 1.03662e-007
Heightened Def Con from 1.03662e-007 to 1.03662e-007
Heightened Def Con from 1.03663e-007 to 1.03678e-007
Heightened Def Con from 1.03678e-007 to 1.05678e-007
Heightened Def Con from 1.05679e-007 to 1.05694e-007
Heightened Def Con from 1.05694e-007 to 1.05696e-007
Heightened Def Con from 1.05697e-007 to 1.05822e-007
Heightened Def Con from 1.05822e-007 to 1.06838e-007
Heightened Def Con from 1.06838e-007 to 1.06854e-007
Heightened Def Con from 1.06854e-007 to 1.06856e-007
Heightened Def Con from 1.06856e-007 to 1.06981e-007
Heightened Def Con from 1.06981e-007 to 1.06984e-007
Heightened Def Con from 1.06984e-007 to 1.06984e-007
Heightened Def Con from 1.06984e-007 to 1.07109e-007
Heightened Def Con from 1.07109e-007 to 1.07109e-007
Heightened Def Con from 1.0711e-007 to 1.0711e-007
Heightened Def Con from 1.0711e-007 to 1.08235e-007
Heightened Def Con from 1.08235e-007 to 1.0836e-007
Heightened Def Con from 1.0836e-007 to 1.0836e-007
Heightened Def Con from 1.0836e-007 to 1.0836e-007
Heightened Def Con from 1.0836e-007 to 1.08361e-007
Heightened Def Con from 1.08361e-007 to 1.08361e-007
Heightened Def Con from 1.08361e-007 to 1.08361e-007
Heightened Def Con from 1.08362e-007 to 1.08362e-007
Heightened Def Con from 1.08362e-007 to 1.09487e-007
Heightened Def Con from 1.09487e-007 to 1.09612e-007
Heightened Def Con from 1.09613e-007 to 1.09613e-007
Heightened Def Con from 1.09613e-007 to 1.09614e-007
Heightened Def Con from 1.09614e-007 to 1.10614e-007
Heightened Def Con from 1.10614e-007 to 1.10629e-007
Heightened Def Con from 1.1063e-007 to 1.1063e-007
Heightened Def Con from 1.1063e-007 to 1.10631e-007
Heightened Def Con from 1.10631e-007 to 1.10632e-007
Heightened Def Con from 1.10632e-007 to 1.10634e-007
Heightened Def Con from 1.10634e-007 to 1.1165e-007
Heightened Def Con from 1.1165e-007 to 1.1165e-007
Heightened Def Con from 1.1165e-007 +to 1.1165e-007
Heightened Def Con from 1.1165e-007 to 1.1165e-007
Heightened Def Con from 1.1165e-007 to 1.11651e-007
Heightened Def Con from 1.11651e-007 to 1.11652e-007
Heightened Def Con from 1.11652e-007 to 1.11652e-007
Heightened Def Con from 1.11652e-007 to 1.11652e-007
Heightened Def Con from 1.11652e-007 to 1.11653e-007
Heightened Def Con from 1.11653e-007 to 1.11653e-007
Heightened Def Con from 1.11653e-007 to 1.11653e-007
Heightened Def Con from 1.11653e-007 to 1.11654e-007
Heightened Def Con from 1.11654e-007 to 1.11656e-007
Heightened Def Con from 1.11656e-007 to 1.11781e-007
Heightened Def Con from 1.11781e-007 to 1.11781e-007
Heightened Def Con from 1.11781e-007 +to 1.11784e-007
Heightened Def Con from 1.11784e-007 to 1.11786e-007
Heightened Def Con from 1.11786e-007 to 1.11786e-007
Heightened Def Con from 1.11786e-007 to 1.11786e-007
Heightened Def Con from 1.11786e-007 to 1.11786e-007
Heightened Def Con from 1.11786e-007 to 1.11788e-007
Heightened Def Con from 1.11788e-007 to 1.11788e-007
Heightened Def Con from 1.11788e-007 to 1.11788e-007
Heightened Def Con from 1.11788e-007 to 1.11913e-007
Heightened Def Con from 1.11913e-007 to 1.11913e-007
Heightened Def Con from 1.11913e-007 to 1.12038e-007
Heightened Def Con from 1.12039e-007 to 1.12164e-007
Heightened Def Con from 1.12164e-007 to 1.12164e-007
Heightened Def Con from 1.12164e-007 to 1.12182e-007
Heightened Def Con from 1.12182e-007 to 1.12182e-007
Heightened Def Con from 1.12182e-007 to 1.12182e-007
Heightened Def Con from 1.12182e-007 to 1.12186e-007
Heightened Def Con from 1.12186e-007 to 1.12186e-007
Heightened Def Con from 1.12186e-007 to 1.12186e-007
Heightened Def Con from 1.12186e-007 to 1.12187e-007
Heightened Def Con from 1.12187e-007 to 1.12187e-007
Heightened Def Con from 1.12187e-007 to 1.12189e-007
Heightened Def Con from 1.12189e-007 to 1.13191e-007
Heightened Def Con from 1.13195e-007 to 1.13196e-007
Heightened Def Con from 1.13196e-007 to 1.13196e-007
Heightened Def Con from 1.13196e-007 to 1.13196e-007
Heightened Def Con from 1.13196e-007 to 1.13197e-007
Heightened Def Con from 1.13197e-007 to 1.13199e-007
Heightened Def Con from 1.13199e-007 to 1.13199e-007
Heightened Def Con from 1.13199e-007 to 1.132e-007
Heightened Def Con from 1.132e-007 to 1.13216e-007
Heightened Def Con from 1.13216e-007 to 1.13216e-007
Heightened Def Con from 1.13216e-007 to 1.13216e-007
Heightened Def Con from 1.13216e-007 to 1.13234e-007
Heightened Def Con from 1.13234e-007 to 1.13237e-007
Heightened Def Con from 1.13237e-007 to 1.14237e-007
Heightened Def Con from 1.14237e-007 to 1.14237e-007
Heightened Def Con from 1.14237e-007 to 1.14252e-007
Heightened Def Con from 1.14253e-007 to 1.14255e-007
Heightened Def Con from 1.14255e-007 to 1.14256e-007
Heightened Def Con from 1.14256e-007 to 1.14256e-007
Heightened Def Con from 1.14256e-007 to 1.14258e-007
Heightened Def Con from 1.14259e-007 to 1.14261e-007
Heightened Def Con from 1.14261e-007 to 1.14262e-007
Heightened Def Con from 1.14262e-007 to 1.14262e-007
Heightened Def Con from 1.14262e-007 to 1.14278e-007
Heightened Def Con from 1.14278e-007 to 1.15403e-007
Heightened Def Con from 1.15403e-007 to 1.15653e-007
Heightened Def Con from 1.15653e-007 to 1.15655e-007
Heightened Def Con from 1.15655e-007 to 1.1578e-007
Heightened Def Con from 1.1578e-007 to 1.15782e-007
Heightened Def Con from 1.15782e-007 to 1.15782e-007
Heightened Def Con from 1.15782e-007 to 1.15783e-007
Heightened Def Con from 1.15783e-007 to 1.15783e-007
Heightened Def Con from 1.15784e-007 to 1.15784e-007
Heightened Def Con from 1.15784e-007 to 1.15786e-007
Heightened Def Con from 1.15786e-007 to 1.15911e-007
Heightened Def Con from 1.15911e-007 to 1.16036e-007
Heightened Def Con from 1.16036e-007 to 1.16036e-007
Heightened Def Con from 1.16037e-007 to 1.16039e-007
Heightened Def Con from 1.16039e-007 to 1.16164e-007
Heightened Def Con from 1.16164e-007 +to 1.16164e-007
Heightened Def Con from 1.16164e-007 to 1.16164e-007
Heightened Def Con from 1.16164e-007 to 1.16164e-007
Heightened Def Con from 1.16164e-007 to 1.16414e-007
Heightened Def Con from 1.16414e-007 to 1.16414e-007
Heightened Def Con from 1.16414e-007 to 1.16414e-007
Heightened Def Con from 1.16414e-007 to 1.17414e-007
Heightened Def Con from 1.17414e-007 to 1.17446e-007
Heightened Def Con from 1.17446e-007 to 1.17446e-007
Heightened Def Con from 1.17446e-007 to 1.17446e-007
Heightened Def Con from 1.17446e-007 to 1.17464e-007
Heightened Def Con from 1.17464e-007 to 1.17464e-007
Heightened Def Con from 1.17464e-007 to 1.17465e-007
Heightened Def Con from 1.17465e-007 to 1.17606e-007
Heightened Def Con from 1.17606e-007 to 1.17606e-007
Heightened Def Con from 1.17606e-007 to 1.17606e-007
Heightened Def Con from 1.17606e-007 to 1.17608e-007
Heightened Def Con from 1.17608e-007 to 1.17608e-007
Heightened Def Con from 1.17609e-007 to 1.1761e-007
Heightened Def Con from 1.17611e-007 to 1.18626e-007
Heightened Def Con from 1.18644e-007 to 1.1866e-007
Heightened Def Con from 1.1866e-007 to 1.1891e-007
Heightened Def Con from 1.1891e-007 to 1.1991e-007
Heightened Def Con from 1.19911e-007 to 1.19911e-007
Heightened Def Con from 1.19911e-007 to 1.19911e-007
Heightened Def Con from 1.19912e-007 to 1.20912e-007
Heightened Def Con from 1.20912e-007 to 1.20914e-007
Heightened Def Con from 1.20914e-007 to 1.20914e-007
Heightened Def Con from 1.20914e-007 to 1.20915e-007
Heightened Def Con from 1.20915e-007 to 1.20915e-007
Heightened Def Con from 1.20915e-007 to 1.21915e-007
Heightened Def Con from 1.21915e-007 to 1.21916e-007
Heightened Def Con from 1.21916e-007 to 1.21916e-007
Heightened Def Con from 1.21916e-007 to 1.2192e-007
Heightened Def Con from 1.21921e-007 to 1.21921e-007
Heightened Def Con from 1.21921e-007 to 1.21921e-007
Heightened Def Con from 1.21921e-007 to 1.21922e-007
Heightened Def Con from 1.21922e-007 to 1.21922e-007
Heightened Def Con from 1.21922e-007 to 1.22924e-007
Heightened Def Con from 1.22924e-007 to 1.22924e-007
Heightened Def Con from 1.22924e-007 to 1.22924e-007
Heightened Def Con from 1.22925e-007 to 1.2294e-007
Heightened Def Con from 1.2294e-007 to 1.22942e-007
Heightened Def Con from 1.22943e-007 to 1.22943e-007
Heightened Def Con from 1.22943e-007 to 1.22943e-007
Heightened Def Con from 1.22943e-007 to 1.22943e-007
Heightened Def Con from 1.22943e-007 to 1.22943e-007
Heightened Def Con from 1.22943e-007 to 1.22944e-007
Heightened Def Con from 1.22944e-007 to 1.22944e-007
Heightened Def Con from 1.22944e-007 to 1.22946e-007
Heightened Def Con from 1.22946e-007 to 1.22946e-007
Heightened Def Con from 1.22946e-007 to 1.22947e-007
Heightened Def Con from 1.22947e-007 to 1.22949e-007
Heightened Def Con from 1.22949e-007 to 1.22949e-007
Heightened Def Con from 1.22949e-007 to 1.22951e-007
Heightened Def Con from 1.22951e-007 to 1.22951e-007
Heightened Def Con from 1.22952e-007 to 1.22952e-007
Heightened Def Con from 1.22953e-007 to 1.22955e-007
Heightened Def Con from 1.22955e-007 to 1.22956e-007
Heightened Def Con from 1.22956e-007 to 1.22956e-007
Heightened Def Con from 1.22956e-007 to 1.22958e-007
Heightened Def Con from 1.22958e-007 to 1.22958e-007
Heightened Def Con from 1.22959e-007 to 1.22961e-007
Heightened Def Con from 1.22961e-007 to 1.22963e-007
Heightened Def Con from 1.22963e-007 to 1.22965e-007
Heightened Def Con from 1.22965e-007 to 1.22965e-007
Heightened Def Con from 1.22965e-007 to 1.23965e-007
Heightened Def Con from 1.23966e-007 to 1.23966e-007
Heightened Def Con from 1.23966e-007 to 1.23966e-007
Heightened Def Con from 1.23966e-007 to 1.23967e-007
Heightened Def Con from 1.23967e-007 to 1.23967e-007
Heightened Def Con from 1.23967e-007 to 1.23967e-007
Heightened Def Con from 1.23967e-007 to 1.23983e-007
Heightened Def Con from 1.23983e-007 +to 1.24016e-007
Heightened Def Con from 1.24017e-007 to 1.24017e-007
Heightened Def Con from 1.24017e-007 to 1.24017e-007
Heightened Def Con from 1.24017e-007 to 1.24017e-007
Heightened Def Con from 1.24018e-007 to 1.24018e-007
Heightened Def Con from 1.24019e-007 to 1.24034e-007
Heightened Def Con from 1.24034e-007 to 1.24159e-007
Heightened Def Con from 1.24159e-007 to 1.24175e-007
Heightened Def Con from 1.24175e-007 to 1.24175e-007
Heightened Def Con from 1.24175e-007 to 1.243e-007
Heightened Def Con from 1.243e-007 to 1.24425e-007
Heightened Def Con from 1.24425e-007 to 1.24425e-007
Heightened Def Con from 1.24425e-007 to 1.24425e-007
Heightened Def Con from 1.24426e-007 to 1.24426e-007
Heightened Def Con from 1.24426e-007 to 1.24426e-007
Heightened Def Con from 1.24426e-007 to 1.24427e-007
Heightened Def Con from 1.24427e-007 to 1.24427e-007
Heightened Def Con from 1.24427e-007 to 1.24427e-007
Heightened Def Con from 1.24427e-007 +to 1.24429e-007
Heightened Def Con from 1.2443e-007 to 1.2443e-007
Heightened Def Con from 1.2443e-007 to 1.24555e-007
Heightened Def Con from 1.24555e-007 to 1.24571e-007
Heightened Def Con from 1.24571e-007 to 1.24572e-007
Heightened Def Con from 1.24572e-007 to 1.24573e-007
Heightened Def Con from 1.24573e-007 to 1.24573e-007
Heightened Def Con from 1.24573e-007 to 1.24574e-007
Heightened Def Con from 1.24574e-007 to 1.25574e-007
Heightened Def Con from 1.25574e-007 to 1.25574e-007
Heightened Def Con from 1.25574e-007 to 1.25576e-007
Heightened Def Con from 1.25576e-007 to 1.26701e-007
Heightened Def Con from 1.26702e-007 to 1.26827e-007
Heightened Def Con from 1.26827e-007 to 1.26828e-007
Heightened Def Con from 1.26828e-007 to 1.2683e-007
Heightened Def Con from 1.2683e-007 to 1.26846e-007
Heightened Def Con from 1.26846e-007 to 1.27846e-007
Heightened Def Con from 1.27847e-007 to 1.27862e-007
Heightened Def Con from 1.27862e-007 to 1.27862e-007
Heightened Def Con from 1.27863e-007 to 1.27988e-007
Heightened Def Con from 1.27988e-007 to 1.28004e-007
Heightened Def Con from 1.28004e-007 to 1.28004e-007
Heightened Def Con from 1.28004e-007 to 1.28004e-007
Heightened Def Con from 1.28004e-007 to 1.28004e-007
Heightened Def Con from 1.28004e-007 to 1.28004e-007
Heightened Def Con from 1.28004e-007 to 1.28004e-007
Heightened Def Con from 1.28004e-007 to 1.28006e-007
Heightened Def Con from 1.28007e-007 to 1.28007e-007
Heightened Def Con from 1.28007e-007 to 1.28007e-007
Heightened Def Con from 1.28008e-007 to 1.28008e-007
Heightened Def Con from 1.28008e-007 to 1.29135e-007
Heightened Def Con from 1.29139e-007 to 1.29139e-007
Heightened Def Con from 1.29139e-007 to 1.29139e-007
Heightened Def Con from 1.29139e-007 to 1.29264e-007
Heightened Def Con from 1.29264e-007 to 1.29296e-007
Heightened Def Con from 1.29296e-007 to 1.29296e-007
Heightened Def Con from 1.29296e-007 to 1.29421e-007
Heightened Def Con from 1.29421e-007 to 1.29421e-007
Heightened Def Con from 1.29422e-007 to 1.29422e-007
Heightened Def Con from 1.29422e-007 to 1.29422e-007
Heightened Def Con from 1.29422e-007 to 1.29422e-007
Heightened Def Con from 1.29422e-007 to 1.29422e-007
Heightened Def Con from 1.29422e-007 to 1.29423e-007
Heightened Def Con from 1.29423e-007 to 1.29565e-007
Heightened Def Con from 1.29565e-007 to 1.29566e-007
Heightened Def Con from 1.29566e-007 to 1.29566e-007
Heightened Def Con from 1.29566e-007 to 1.29566e-007
Heightened Def Con from 1.29566e-007 to 1.29566e-007
Heightened Def Con from 1.29566e-007 to 1.29567e-007
Heightened Def Con from 1.29567e-007 to 1.29567e-007
Heightened Def Con from 1.29567e-007 to 1.29567e-007
Heightened Def Con from 1.29567e-007 to 1.29567e-007
Heightened Def Con from 1.29567e-007 to 1.29567e-007
Heightened Def Con from 1.29567e-007 to 1.29725e-007
Heightened Def Con from 1.29726e-007 to 1.29726e-007
Heightened Def Con from 1.29726e-007 to 1.29726e-007
Heightened Def Con from 1.29727e-007 to 1.29727e-007
Heightened Def Con from 1.29727e-007 to 1.30727e-007
Heightened Def Con from 1.30727e-007 to 1.31727e-007
Heightened Def Con from 1.31727e-007 to 1.31852e-007
Heightened Def Con from 1.31852e-007 to 1.31852e-007
Heightened Def Con from 1.31852e-007 to 1.31868e-007
Heightened Def Con from 1.31868e-007 to 1.31868e-007
Heightened Def Con from 1.31869e-007 to 1.31869e-007
Heightened Def Con from 1.31869e-007 to 1.31869e-007
Heightened Def Con from 1.31869e-007 to 1.31869e-007
Heightened Def Con from 1.31869e-007 to 1.3187e-007
Heightened Def Con from 1.3187e-007 to 1.3187e-007
Heightened Def Con from 1.3187e-007 to 1.31901e-007
Heightened Def Con from 1.31902e-007 to 1.32152e-007
Heightened Def Con from 1.32152e-007 to 1.32277e-007
Heightened Def Con from 1.32277e-007 to 1.32277e-007
Heightened Def Con from 1.32277e-007 to 1.32309e-007
Heightened Def Con from 1.32309e-007 to 1.3234e-007
Heightened Def Con from 1.32341e-007 to 1.33341e-007
Heightened Def Con from 1.33341e-007 to 1.33341e-007
Heightened Def Con from 1.33341e-007 to 1.33357e-007
Heightened Def Con from 1.33358e-007 to 1.33358e-007
Heightened Def Con from 1.33358e-007 to 1.33624e-007
Heightened Def Con from 1.33624e-007 to 1.33749e-007
Heightened Def Con from 1.33749e-007 to 1.33751e-007
Heightened Def Con from 1.33751e-007 to 1.33908e-007
Heightened Def Con from 1.33908e-007 to 1.33909e-007
Heightened Def Con from 1.33909e-007 to 1.34034e-007
Heightened Def Con from 1.34035e-007 to 1.34035e-007
Heightened Def Con from 1.34035e-007 to 1.34035e-007
Heightened Def Con from 1.34035e-007 to 1.34035e-007
Heightened Def Con from 1.34035e-007 to 1.34035e-007
Heightened Def Con from 1.34035e-007 to 1.35035e-007
Heightened Def Con from 1.35035e-007 to 1.35035e-007
Heightened Def Con from 1.35035e-007 to 1.35035e-007
Heightened Def Con from 1.35035e-007 to 1.35035e-007
Heightened Def Con from 1.35035e-007 to 1.35035e-007
Heightened Def Con from 1.35036e-007 to 1.35161e-007
Heightened Def Con from 1.35161e-007 to 1.35162e-007
Heightened Def Con from 1.35162e-007 to 1.35209e-007
Heightened Def Con from 1.3521e-007 to 1.3735e-007
Heightened Def Con from 1.3735e-007 to 1.37475e-007
Heightened Def Con from 1.37476e-007 to 1.37603e-007
Heightened Def Con from 1.37603e-007 to 1.38605e-007
Heightened Def Con from 1.38605e-007 to 1.38605e-007
Heightened Def Con from 1.38605e-007 to 1.39605e-007
Heightened Def Con from 1.39605e-007 to 1.39621e-007
Heightened Def Con from 1.39621e-007 to 1.39621e-007
Heightened Def Con from 1.39621e-007 to 1.41262e-007
Heightened Def Con from 1.41262e-007 to 1.41262e-007
Heightened Def Con from 1.41262e-007 to 1.41387e-007
Heightened Def Con from 1.41387e-007 to 1.41387e-007
Heightened Def Con from 1.41387e-007 to 1.41388e-007
Heightened Def Con from 1.41388e-007 to 1.41513e-007
Heightened Def Con from 1.41513e-007 to 1.41513e-007
Heightened Def Con from 1.41513e-007 to 1.41515e-007
Heightened Def Con from 1.41515e-007 to 1.41515e-007
Heightened Def Con from 1.41516e-007 to 1.41547e-007
Heightened Def Con from 1.41547e-007 to 1.41548e-007
Heightened Def Con from 1.41548e-007 to 1.41704e-007
Heightened Def Con from 1.41705e-007 to 1.4183e-007
Heightened Def Con from 1.4183e-007 to 1.41831e-007
Heightened Def Con from 1.41831e-007 to 1.41956e-007
Heightened Def Con from 1.41956e-007 to 1.41957e-007
Heightened Def Con from 1.41957e-007 to 1.42084e-007
Heightened Def Con from 1.42084e-007 to 1.42084e-007
Heightened Def Con from 1.42084e-007 to 1.42085e-007
Heightened Def Con from 1.42085e-007 to 1.42085e-007
Heightened Def Con from 1.42085e-007 to 1.42366e-007
Heightened Def Con from 1.42366e-007 to 1.42398e-007
Heightened Def Con from 1.42398e-007 to 1.44398e-007
Heightened Def Con from 1.44398e-007 to 1.44399e-007
Heightened Def Con from 1.444e-007 to 1.44525e-007
Heightened Def Con from 1.44525e-007 to 1.44526e-007
Heightened Def Con from 1.44526e-007 to 1.46651e-007
Heightened Def Con from 1.46652e-007 to 1.46777e-007
Heightened Def Con from 1.46777e-007 to 1.46917e-007
Heightened Def Con from 1.46918e-007 to 1.46918e-007
Heightened Def Con from 1.46918e-007 to 1.4692e-007
Heightened Def Con from 1.4692e-007 to 1.47045e-007
Heightened Def Con from 1.47045e-007 to 1.47046e-007
Heightened Def Con from 1.47046e-007 to 1.47047e-007
Heightened Def Con from 1.47047e-007 to 1.48049e-007
Heightened Def Con from 1.48049e-007 to 1.48065e-007
Heightened Def Con from 1.48065e-007 to 1.48066e-007
Heightened Def Con from 1.48066e-007 to 1.48208e-007
Heightened Def Con from 1.48209e-007 to 1.48209e-007
Heightened Def Con from 1.4821e-007 to 1.5321e-007
Heightened Def Con from 1.5321e-007 to 1.53211e-007
Heightened Def Con from 1.53211e-007 to 1.54213e-007
Heightened Def Con from 1.54213e-007 to 1.54338e-007
Heightened Def Con from 1.54338e-007 to 1.54479e-007
Heightened Def Con from 1.54479e-007 to 1.56604e-007
Heightened Def Con from 1.56604e-007 to 1.56604e-007
Heightened Def Con from 1.56604e-007 to 1.57605e-007
Heightened Def Con from 1.57605e-007 to 1.57746e-007
Heightened Def Con from 1.57746e-007 to 1.57746e-007
Heightened Def Con from 1.57746e-007 to 1.57746e-007
Heightened Def Con from 1.57747e-007 to 1.57874e-007
Heightened Def Con from 1.57878e-007 to 1.5913e-007
Heightened Def Con from 1.59133e-007 to 1.59259e-007
Heightened Def Con from 1.59259e-007 to 1.59509e-007
Heightened Def Con from 1.59509e-007 to 1.5951e-007
Heightened Def Con from 1.5951e-007 to 1.59525e-007
Heightened Def Con from 1.59526e-007 to 1.60528e-007
Heightened Def Con from 1.60528e-007 to 1.60528e-007
Heightened Def Con from 1.60528e-007 to 1.60528e-007
Heightened Def Con from 1.60528e-007 to 1.6053e-007
Heightened Def Con from 1.6053e-007 to 1.6153e-007
Heightened Def Con from 1.6153e-007 to 1.61531e-007
Heightened Def Con from 1.61531e-007 to 1.61532e-007
Heightened Def Con from 1.61532e-007 +to 1.61782e-007
Heightened Def Con from 1.61782e-007 to 1.61798e-007
Heightened Def Con from 1.61798e-007 to 1.61798e-007
Heightened Def Con from 1.61798e-007 to 1.61798e-007
Heightened Def Con from 1.61798e-007 to 1.61798e-007
Heightened Def Con from 1.61798e-007 to 1.61798e-007
Heightened Def Con from 1.61798e-007 to 1.61798e-007
Heightened Def Con from 1.61799e-007 to 1.61799e-007
Heightened Def Con from 1.618e-007 to 1.618e-007
Heightened Def Con from 1.618e-007 to 1.618e-007
Heightened Def Con from 1.618e-007 to 1.61802e-007
Heightened Def Con from 1.61802e-007 to 1.61818e-007
Heightened Def Con from 1.61818e-007 to 1.61819e-007
Heightened Def Con from 1.61819e-007 to 1.61944e-007
Heightened Def Con from 1.61944e-007 to 1.61962e-007
Heightened Def Con from 1.61962e-007 to 1.62104e-007
Heightened Def Con from 1.62104e-007 to 1.63229e-007
Heightened Def Con from 1.6323e-007 to 1.63232e-007
Heightened Def Con from 1.63232e-007 to 1.63232e-007
Heightened Def Con from 1.63232e-007 to 1.63232e-007
Heightened Def Con from 1.63232e-007 to 1.63232e-007
Heightened Def Con from 1.63232e-007 to 1.64232e-007
Heightened Def Con from 1.64232e-007 to 1.65248e-007
Heightened Def Con from 1.65248e-007 to 1.65375e-007
Heightened Def Con from 1.65375e-007 to 1.65376e-007
Heightened Def Con from 1.65376e-007 to 1.65376e-007
Heightened Def Con from 1.65377e-007 to 1.65377e-007
Heightened Def Con from 1.65377e-007 to 1.65502e-007
Heightened Def Con from 1.65502e-007 to 1.65502e-007
Heightened Def Con from 1.65503e-007 to 1.65503e-007
Heightened Def Con from 1.65503e-007 to 1.65503e-007
Heightened Def Con from 1.65503e-007 to 1.65503e-007
Heightened Def Con from 1.65503e-007 to 1.66503e-007
Heightened Def Con from 1.66503e-007 to 1.66506e-007
Heightened Def Con from 1.66506e-007 to 1.66508e-007
Heightened Def Con from 1.66508e-007 to 1.66508e-007
Heightened Def Con from 1.66508e-007 to 1.6651e-007
Heightened Def Con from 1.6651e-007 to 1.6651e-007
Heightened Def Con from 1.6651e-007 to 1.66511e-007
Heightened Def Con from 1.66511e-007 to 1.66511e-007
Heightened Def Con from 1.66511e-007 to 1.66511e-007
Heightened Def Con from 1.66511e-007 to 1.66511e-007
Heightened Def Con from 1.66511e-007 to 1.66511e-007
Heightened Def Con from 1.66511e-007 to 1.66511e-007
Heightened Def Con from 1.66511e-007 to 1.66512e-007
Heightened Def Con from 1.66512e-007 to 1.66528e-007
Heightened Def Con from 1.66528e-007 to 1.6653e-007
Heightened Def Con from 1.66531e-007 to 1.66533e-007
Heightened Def Con from 1.66533e-007 to 1.66533e-007
Heightened Def Con from 1.66533e-007 to 1.66533e-007
Heightened Def Con from 1.66533e-007 to 1.66533e-007
Heightened Def Con from 1.66533e-007 to 1.66534e-007
Heightened Def Con from 1.66535e-007 to 1.66536e-007
Heightened Def Con from 1.66536e-007 to 1.66536e-007
Heightened Def Con from 1.66536e-007 to 1.66536e-007
Heightened Def Con from 1.66536e-007 to 1.66538e-007
Heightened Def Con from 1.66538e-007 to 1.6654e-007
Heightened Def Con from 1.6654e-007 to 1.66541e-007
Heightened Def Con from 1.66541e-007 to 1.66541e-007
Heightened Def Con from 1.66541e-007 to 1.66541e-007
Heightened Def Con from 1.66541e-007 to 1.66541e-007
Heightened Def Con from 1.66541e-007 to 1.66542e-007
Heightened Def Con from 1.66542e-007 to 1.66542e-007
Heightened Def Con from 1.66542e-007 to 1.66544e-007
Heightened Def Con from 1.66544e-007 to 1.66546e-007
Heightened Def Con from 1.66546e-007 to 1.66548e-007
Heightened Def Con from 1.66548e-007 to 1.66548e-007
Heightened Def Con from 1.66548e-007 to 1.66548e-007
Heightened Def Con from 1.66549e-007 to 1.66549e-007
Heightened Def Con from 1.66549e-007 to 1.6655e-007
Heightened Def Con from 1.6655e-007 to 1.66552e-007
Heightened Def Con from 1.66552e-007 to 1.66552e-007
Heightened Def Con from 1.66552e-007 to 1.66552e-007
Heightened Def Con from 1.66552e-007 to 1.66554e-007
Heightened Def Con from 1.66554e-007 to 1.66679e-007
Heightened Def Con from 1.6668e-007 to 1.6668e-007
Heightened Def Con from 1.6668e-007 to 1.66682e-007
Heightened Def Con from 1.66682e-007 to 1.66682e-007
Heightened Def Con from 1.66682e-007 to 1.66683e-007
Heightened Def Con from 1.66683e-007 to 1.66683e-007
Heightened Def Con from 1.66683e-007 to 1.66683e-007
Heightened Def Con from 1.66683e-007 to 1.66685e-007
Heightened Def Con from 1.66685e-007 to 1.66685e-007
Heightened Def Con from 1.66685e-007 to 1.66685e-007
Heightened Def Con from 1.66686e-007 to 1.66686e-007
Heightened Def Con from 1.66686e-007 to 1.66686e-007
Heightened Def Con from 1.66687e-007 to 1.66687e-007
Heightened Def Con from 1.66687e-007 to 1.66687e-007
Heightened Def Con from 1.66687e-007 +to 1.66721e-007
Heightened Def Con from 1.66721e-007 to 1.66721e-007
Heightened Def Con from 1.66721e-007 to 1.66721e-007
Heightened Def Con from 1.66721e-007 to 1.66721e-007
Heightened Def Con from 1.66721e-007 to 1.66722e-007
Heightened Def Con from 1.66722e-007 to 1.66722e-007
Heightened Def Con from 1.66723e-007 to 1.66723e-007
Heightened Def Con from 1.66723e-007 to 1.66724e-007
Heightened Def Con from 1.66724e-007 to 1.66724e-007
Heightened Def Con from 1.66724e-007 to 1.66725e-007
Heightened Def Con from 1.66725e-007 to 1.6674e-007
Heightened Def Con from 1.66741e-007 to 1.66756e-007
Heightened Def Con from 1.66757e-007 to 1.66757e-007
Heightened Def Con from 1.66757e-007 to 1.66758e-007
Heightened Def Con from 1.66758e-007 to 1.66758e-007
Heightened Def Con from 1.66758e-007 to 1.66774e-007
Heightened Def Con from 1.66774e-007 to 1.66775e-007
Heightened Def Con from 1.66775e-007 to 1.66775e-007
Heightened Def Con from 1.66775e-007 to 1.66775e-007
Heightened Def Con from 1.66775e-007 to 1.66775e-007
Heightened Def Con from 1.66776e-007 to 1.66776e-007
Heightened Def Con from 1.66776e-007 to 1.66776e-007
Heightened Def Con from 1.66776e-007 to 1.66776e-007
Heightened Def Con from 1.66776e-007 to 1.66776e-007
Heightened Def Con from 1.66776e-007 to 1.66776e-007
Heightened Def Con from 1.66777e-007 to 1.66777e-007
Heightened Def Con from 1.66777e-007 to 1.66777e-007
Heightened Def Con from 1.66777e-007 to 1.66779e-007
Heightened Def Con from 1.66779e-007 to 1.6692e-007
Heightened Def Con from 1.6692e-007 to 1.6692e-007
Heightened Def Con from 1.6692e-007 to 1.66921e-007
Heightened Def Con from 1.66921e-007 to 1.66922e-007
Heightened Def Con from 1.66922e-007 to 1.66924e-007
Heightened Def Con from 1.66924e-007 to 1.66924e-007
Heightened Def Con from 1.66924e-007 to 1.66924e-007
Heightened Def Con from 1.66925e-007 to 1.66925e-007
Heightened Def Con from 1.66925e-007 to 1.66926e-007
Heightened Def Con from 1.66926e-007 to 1.66926e-007
Heightened Def Con from 1.66926e-007 to 1.66926e-007
Heightened Def Con from 1.66926e-007 to 1.66941e-007
Heightened Def Con from 1.66942e-007 to 1.66942e-007
Heightened Def Con from 1.66942e-007 to 1.66943e-007
Heightened Def Con from 1.66943e-007 to 1.66943e-007
Heightened Def Con from 1.66944e-007 to 1.66946e-007
Heightened Def Con from 1.66946e-007 to 1.66946e-007
Heightened Def Con from 1.66946e-007 to 1.66946e-007
Heightened Def Con from 1.66946e-007 to 1.66948e-007
Heightened Def Con from 1.66948e-007 to 1.67091e-007
Heightened Def Con from 1.67091e-007 to 1.67107e-007
Heightened Def Con from 1.67107e-007 to 1.67109e-007
Heightened Def Con from 1.67109e-007 to 1.67109e-007
Heightened Def Con from 1.6711e-007 to 1.67112e-007
Heightened Def Con from 1.67112e-007 to 1.67112e-007
Heightened Def Con from 1.67112e-007 to 1.67112e-007
Heightened Def Con from 1.67112e-007 to 1.67237e-007
Heightened Def Con from 1.67237e-007 to 1.67239e-007
Heightened Def Con from 1.67239e-007 to 1.67239e-007
Heightened Def Con from 1.67239e-007 to 1.67239e-007
Heightened Def Con from 1.67239e-007 to 1.67241e-007
Heightened Def Con from 1.67241e-007 to 1.67241e-007
Heightened Def Con from 1.67241e-007 to 1.67241e-007
Heightened Def Con from 1.67241e-007 to 1.67241e-007
Heightened Def Con from 1.67242e-007 to 1.67244e-007
Heightened Def Con from 1.67244e-007 to 1.67244e-007
Heightened Def Con from 1.67244e-007 to 1.67245e-007
Heightened Def Con from 1.67245e-007 to 1.67247e-007
Heightened Def Con from 1.67247e-007 to 1.67248e-007
Heightened Def Con from 1.67248e-007 to 1.67248e-007
Heightened Def Con from 1.67248e-007 +to 1.67249e-007
Heightened Def Con from 1.67249e-007 to 1.6725e-007
Heightened Def Con from 1.6725e-007 to 1.6725e-007
Heightened Def Con from 1.6725e-007 to 1.6725e-007
Heightened Def Con from 1.6725e-007 to 1.67251e-007
Heightened Def Con from 1.67251e-007 to 1.67251e-007
Heightened Def Con from 1.67251e-007 to 1.67251e-007
Heightened Def Con from 1.67251e-007 to 1.67251e-007
Heightened Def Con from 1.67251e-007 to 1.67252e-007
Heightened Def Con from 1.67252e-007 to 1.67252e-007
Heightened Def Con from 1.67252e-007 to 1.67252e-007
Heightened Def Con from 1.67253e-007 to 1.67253e-007
Heightened Def Con from 1.67253e-007 to 1.67253e-007
Heightened Def Con from 1.67253e-007 to 1.67253e-007
Heightened Def Con from 1.67253e-007 to 1.67255e-007
Heightened Def Con from 1.67255e-007 to 1.67255e-007
Heightened Def Con from 1.67255e-007 to 1.67255e-007
Heightened Def Con from 1.67255e-007 +to 1.67271e-007
Heightened Def Con from 1.67271e-007 to 1.67272e-007
Heightened Def Con from 1.67272e-007 to 1.67274e-007
Heightened Def Con from 1.67275e-007 +to 1.674e-007
Heightened Def Con from 1.674e-007 to 1.67416e-007
Heightened Def Con from 1.67416e-007 to 1.67416e-007
Heightened Def Con from 1.67416e-007 to 1.67416e-007
Heightened Def Con from 1.67416e-007 to 1.68416e-007
Heightened Def Con from 1.68417e-007 to 1.68432e-007
Heightened Def Con from 1.68433e-007 to 1.68433e-007
Heightened Def Con from 1.68433e-007 to 1.68433e-007
Heightened Def Con from 1.68434e-007 to 1.68434e-007
Heightened Def Con from 1.68434e-007 to 1.68434e-007
Heightened Def Con from 1.68435e-007 to 1.68437e-007
Heightened Def Con from 1.68437e-007 to 1.68437e-007
Heightened Def Con from 1.68437e-007 to 1.68437e-007
Heightened Def Con from 1.68438e-007 to 1.68438e-007
Heightened Def Con from 1.68438e-007 to 1.68438e-007
Heightened Def Con from 1.68438e-007 to 1.68438e-007
Heightened Def Con from 1.68439e-007 to 1.68441e-007
Heightened Def Con from 1.68441e-007 to 1.68441e-007
Heightened Def Con from 1.68441e-007 to 1.68442e-007
Heightened Def Con from 1.68442e-007 to 1.68442e-007
Heightened Def Con from 1.68442e-007 to 1.68567e-007
Heightened Def Con from 1.68567e-007 to 1.68567e-007
Heightened Def Con from 1.68567e-007 to 1.68585e-007
Heightened Def Con from 1.68585e-007 to 1.68585e-007
Heightened Def Con from 1.68585e-007 to 1.68586e-007
Heightened Def Con from 1.68586e-007 to 1.68586e-007
Heightened Def Con from 1.68586e-007 to 1.68586e-007
Heightened Def Con from 1.68586e-007 to 1.68586e-007
Heightened Def Con from 1.68587e-007 to 1.68587e-007
Heightened Def Con from 1.68587e-007 to 1.68589e-007
Heightened Def Con from 1.68589e-007 to 1.6859e-007
Heightened Def Con from 1.6859e-007 to 1.6859e-007
Heightened Def Con from 1.6859e-007 to 1.68591e-007
Heightened Def Con from 1.68591e-007 to 1.68591e-007
Heightened Def Con from 1.68591e-007 to 1.68591e-007
Heightened Def Con from 1.68591e-007 to 1.68591e-007
Heightened Def Con from 1.68591e-007 to 1.68593e-007
Heightened Def Con from 1.68593e-007 to 1.68595e-007
Heightened Def Con from 1.68595e-007 to 1.68595e-007
Heightened Def Con from 1.68595e-007 to 1.68596e-007
Heightened Def Con from 1.68596e-007 to 1.68596e-007
Heightened Def Con from 1.68596e-007 to 1.68596e-007
Heightened Def Con from 1.68596e-007 to 1.68596e-007
Heightened Def Con from 1.68596e-007 to 1.68596e-007
Heightened Def Con from 1.68596e-007 to 1.68598e-007
Heightened Def Con from 1.68598e-007 to 1.68598e-007
Heightened Def Con from 1.68599e-007 to 1.68599e-007
Heightened Def Con from 1.68599e-007 to 1.68615e-007
Heightened Def Con from 1.68615e-007 to 1.68755e-007
Heightened Def Con from 1.68755e-007 to 1.68896e-007
Heightened Def Con from 1.68896e-007 to 1.68896e-007
Heightened Def Con from 1.68896e-007 to 1.68929e-007
Heightened Def Con from 1.68932e-007 to 1.69057e-007
Heightened Def Con from 1.69057e-007 to 1.69058e-007
Heightened Def Con from 1.69058e-007 to 1.69058e-007
Heightened Def Con from 1.69058e-007 to 1.6906e-007
Heightened Def Con from 1.6906e-007 to 1.69064e-007
Heightened Def Con from 1.69064e-007 to 1.69079e-007
Heightened Def Con from 1.6908e-007 to 1.6908e-007
Heightened Def Con from 1.6908e-007 to 1.69205e-007
Heightened Def Con from 1.69205e-007 to 1.69205e-007
Heightened Def Con from 1.69205e-007 to 1.69205e-007
Heightened Def Con from 1.69205e-007 to 1.70205e-007
Heightened Def Con from 1.70205e-007 to 1.70206e-007
Heightened Def Con from 1.70206e-007 to 1.70206e-007
Heightened Def Con from 1.70206e-007 to 1.70206e-007
Heightened Def Con from 1.70207e-007 to 1.70207e-007
Heightened Def Con from 1.70207e-007 to 1.70207e-007
Heightened Def Con from 1.70207e-007 to 1.70209e-007
Heightened Def Con from 1.7021e-007 to 1.70226e-007
Heightened Def Con from 1.70226e-007 to 1.70227e-007
Heightened Def Con from 1.70227e-007 to 1.70242e-007
Heightened Def Con from 1.70243e-007 to 1.70243e-007
Heightened Def Con from 1.70243e-007 to 1.70245e-007
Heightened Def Con from 1.70245e-007 to 1.70245e-007
Heightened Def Con from 1.70245e-007 to 1.70246e-007
Heightened Def Con from 1.70246e-007 to 1.70246e-007
Heightened Def Con from 1.70246e-007 to 1.70246e-007
Heightened Def Con from 1.70246e-007 to 1.70371e-007
Heightened Def Con from 1.70371e-007 to 1.71373e-007
Heightened Def Con from 1.71377e-007 to 1.71378e-007
Heightened Def Con from 1.71378e-007 to 1.71393e-007
Heightened Def Con from 1.71393e-007 +to 1.72393e-007
Heightened Def Con from 1.72393e-007 to 1.72393e-007
Heightened Def Con from 1.72394e-007 to 1.73409e-007
Heightened Def Con from 1.73411e-007 to 1.73415e-007
Heightened Def Con from 1.73415e-007 to 1.7354e-007
Heightened Def Con from 1.7354e-007 to 1.73542e-007
Heightened Def Con from 1.73542e-007 to 1.73542e-007
Heightened Def Con from 1.73542e-007 to 1.73543e-007
Heightened Def Con from 1.73543e-007 to 1.73543e-007
Heightened Def Con from 1.73543e-007 to 1.73543e-007
Heightened Def Con from 1.73543e-007 to 1.73543e-007
Heightened Def Con from 1.73543e-007 to 1.73668e-007
Heightened Def Con from 1.73668e-007 to 1.73668e-007
Heightened Def Con from 1.73669e-007 to 1.74669e-007
Heightened Def Con from 1.74669e-007 to 1.74669e-007
Heightened Def Con from 1.74669e-007 to 1.74669e-007
Heightened Def Con from 1.74669e-007 to 1.7467e-007
Heightened Def Con from 1.7467e-007 to 1.7567e-007
Heightened Def Con from 1.7567e-007 to 1.7567e-007
Heightened Def Con from 1.7567e-007 to 1.7567e-007
Heightened Def Con from 1.7567e-007 to 1.75672e-007
Heightened Def Con from 1.75672e-007 to 1.75922e-007
Heightened Def Con from 1.75923e-007 to 1.76173e-007
Heightened Def Con from 1.76173e-007 to 1.76204e-007
Heightened Def Con from 1.76204e-007 to 1.76204e-007
Heightened Def Con from 1.76205e-007 to 1.76455e-007
Heightened Def Con from 1.76455e-007 to 1.76457e-007
Heightened Def Con from 1.76457e-007 to 1.76457e-007
Heightened Def Con from 1.76457e-007 to 1.76582e-007
Heightened Def Con from 1.76583e-007 to 1.76585e-007
Heightened Def Con from 1.76585e-007 to 1.76585e-007
Heightened Def Con from 1.76585e-007 to 1.76712e-007
Heightened Def Con from 1.76716e-007 to 1.76716e-007
Heightened Def Con from 1.76716e-007 to 1.77841e-007
Heightened Def Con from 1.77841e-007 to 1.77844e-007
Heightened Def Con from 1.77844e-007 to 1.77846e-007
Heightened Def Con from 1.77846e-007 to 1.77846e-007
Heightened Def Con from 1.77847e-007 to 1.77847e-007
Heightened Def Con from 1.77847e-007 to 1.77847e-007
Heightened Def Con from 1.77847e-007 to 1.77847e-007
Heightened Def Con from 1.77848e-007 to 1.78848e-007
Heightened Def Con from 1.78848e-007 to 1.7885e-007
Heightened Def Con from 1.7885e-007 to 1.7985e-007
Heightened Def Con from 1.7985e-007 to 1.79866e-007
Heightened Def Con from 1.79866e-007 to 1.7987e-007
Heightened Def Con from 1.7987e-007 to 1.7987e-007
Heightened Def Con from 1.79871e-007 to 1.80996e-007
Heightened Def Con from 1.80996e-007 to 1.80998e-007
Heightened Def Con from 1.80998e-007 to 1.81998e-007
Heightened Def Con from 1.81998e-007 to 1.82014e-007
Heightened Def Con from 1.82014e-007 to 1.83264e-007
Heightened Def Con from 1.83264e-007 to 1.83407e-007
Heightened Def Con from 1.83407e-007 to 1.83407e-007
Heightened Def Con from 1.83407e-007 to 1.83407e-007
Heightened Def Con from 1.83407e-007 to 1.83425e-007
Heightened Def Con from 1.83425e-007 to 1.83425e-007
Heightened Def Con from 1.83426e-007 to 1.83426e-007
Heightened Def Con from 1.83426e-007 to 1.83427e-007
Heightened Def Con from 1.83427e-007 to 1.83427e-007
Heightened Def Con from 1.83427e-007 to 1.83693e-007
Heightened Def Con from 1.83693e-007 to 1.85693e-007
Heightened Def Con from 1.85693e-007 to 1.85693e-007
Heightened Def Con from 1.85693e-007 to 1.85693e-007
Heightened Def Con from 1.85694e-007 to 1.85709e-007
Heightened Def Con from 1.85709e-007 to 1.85709e-007
Heightened Def Con from 1.85709e-007 to 1.8571e-007
Heightened Def Con from 1.8571e-007 to 1.85835e-007
Heightened Def Con from 1.85835e-007 to 1.87851e-007
Heightened Def Con from 1.87851e-007 to 1.87852e-007
Heightened Def Con from 1.87852e-007 to 1.87852e-007
Heightened Def Con from 1.87852e-007 to 1.87852e-007
Heightened Def Con from 1.87852e-007 to 1.88102e-007
Heightened Def Con from 1.88102e-007 to 1.88103e-007
Heightened Def Con from 1.88103e-007 to 1.88353e-007
Heightened Def Con from 1.88353e-007 to 1.88369e-007
Heightened Def Con from 1.8837e-007 to 1.88495e-007
Heightened Def Con from 1.88495e-007 to 1.8862e-007
Heightened Def Con from 1.8862e-007 to 1.88635e-007
Heightened Def Con from 1.88635e-007 to 1.88636e-007
Heightened Def Con from 1.88636e-007 to 1.90651e-007
Heightened Def Con from 1.90652e-007 to 1.90652e-007
Heightened Def Con from 1.90652e-007 to 1.90652e-007
Heightened Def Con from 1.90652e-007 to 1.90779e-007
Heightened Def Con from 1.9078e-007 to 1.91905e-007
Heightened Def Con from 1.91905e-007 to 1.91905e-007
Heightened Def Con from 1.91905e-007 to 1.91905e-007
Heightened Def Con from 1.91906e-007 to 1.92906e-007
Heightened Def Con from 1.92906e-007 to 1.92906e-007
Heightened Def Con from 1.92906e-007 to 1.92906e-007
Heightened Def Con from 1.92906e-007 to 1.92909e-007
Heightened Def Con from 1.92909e-007 to 1.92909e-007
Heightened Def Con from 1.92909e-007 to 1.92909e-007
Heightened Def Con from 1.92909e-007 to 1.92909e-007
Heightened Def Con from 1.92909e-007 to 1.92909e-007
Heightened Def Con from 1.92909e-007 to 1.9291e-007
Heightened Def Con from 1.9291e-007 to 1.9291e-007
Heightened Def Con from 1.92911e-007 to 1.92911e-007
Heightened Def Con from 1.92911e-007 to 1.92912e-007
Heightened Def Con from 1.92912e-007 to 1.92914e-007
Heightened Def Con from 1.92914e-007 to 1.93039e-007
Heightened Def Con from 1.93039e-007 to 1.93039e-007
Heightened Def Con from 1.93039e-007 to 1.93039e-007
Heightened Def Con from 1.93039e-007 to 1.9304e-007
Heightened Def Con from 1.9304e-007 to 1.93042e-007
Heightened Def Con from 1.93042e-007 to 1.93042e-007
Heightened Def Con from 1.93042e-007 to 1.93043e-007
Heightened Def Con from 1.93043e-007 to 1.93043e-007
Heightened Def Con from 1.93043e-007 to 1.93045e-007
Heightened Def Con from 1.93046e-007 to 1.93171e-007
Heightened Def Con from 1.93171e-007 to 1.94171e-007
Heightened Def Con from 1.94171e-007 to 1.94296e-007
Heightened Def Con from 1.94296e-007 to 1.94296e-007
Heightened Def Con from 1.94296e-007 to 1.94312e-007
Heightened Def Con from 1.94312e-007 to 1.94312e-007
Heightened Def Con from 1.94312e-007 to 1.94312e-007
Heightened Def Con from 1.94312e-007 to 1.94312e-007
Heightened Def Con from 1.94312e-007 to 1.94439e-007
Heightened Def Con from 1.94439e-007 to 1.94566e-007
Heightened Def Con from 1.94566e-007 to 1.95582e-007
Heightened Def Con from 1.95582e-007 to 1.95583e-007
Heightened Def Con from 1.95583e-007 to 1.95583e-007
Heightened Def Con from 1.95583e-007 to 1.95585e-007
Heightened Def Con from 1.95585e-007 to 1.95587e-007
Heightened Def Con from 1.95588e-007 to 1.95728e-007
Heightened Def Con from 1.95729e-007 to 1.95729e-007
Heightened Def Con from 1.95729e-007 to 1.9573e-007
Heightened Def Con from 1.9573e-007 to 1.9673e-007
Heightened Def Con from 1.9673e-007 to 1.96855e-007
Heightened Def Con from 1.96855e-007 to 1.96855e-007
Heightened Def Con from 1.96855e-007 to 1.9698e-007
Heightened Def Con from 1.9698e-007 to 1.96982e-007
Heightened Def Con from 1.96982e-007 to 1.96982e-007
Heightened Def Con from 1.96982e-007 to 1.98109e-007
Heightened Def Con from 1.98109e-007 to 1.98111e-007
Heightened Def Con from 1.98111e-007 to 1.98111e-007
Heightened Def Con from 1.98112e-007 to 1.98127e-007
Heightened Def Con from 1.98127e-007 to 1.98145e-007
Heightened Def Con from 1.98145e-007 to 1.98147e-007
Heightened Def Con from 1.98147e-007 to 1.99147e-007
Heightened Def Con from 1.99147e-007 to 1.99149e-007
Heightened Def Con from 1.99149e-007 to 1.99149e-007
Heightened Def Con from 1.9915e-007 to 1.9915e-007
Heightened Def Con from 1.9915e-007 to 2.0015e-007
Heightened Def Con from 2.0015e-007 to 2.004e-007
Heightened Def Con from 2.004e-007 to 2.00402e-007
Heightened Def Con from 2.00402e-007 to 2.01402e-007
Heightened Def Con from 2.01403e-007 to 2.02403e-007
Heightened Def Con from 2.02403e-007 to 2.02403e-007
Heightened Def Con from 2.02403e-007 to 2.02419e-007
Heightened Def Con from 2.02419e-007 to 2.03419e-007
Heightened Def Con from 2.03419e-007 to 2.03423e-007
Heightened Def Con from 2.03423e-007 to 2.03423e-007
Heightened Def Con from 2.03423e-007 to 2.03439e-007
Heightened Def Con from 2.03439e-007 to 2.03439e-007
Heightened Def Con from 2.03439e-007 to 2.03439e-007
Heightened Def Con from 2.03439e-007 to 2.03439e-007
Heightened Def Con from 2.03439e-007 to 2.05439e-007
Heightened Def Con from 2.0544e-007 to 2.0544e-007
Heightened Def Con from 2.05441e-007 to 2.05445e-007
Heightened Def Con from 2.05445e-007 to 2.05445e-007
Heightened Def Con from 2.05445e-007 to 2.05447e-007
Heightened Def Con from 2.05447e-007 to 2.05449e-007
Heightened Def Con from 2.0545e-007 to 2.0545e-007
Heightened Def Con from 2.0545e-007 to 2.05451e-007
Heightened Def Con from 2.05451e-007 to 2.05701e-007
Heightened Def Con from 2.05701e-007 to 2.05701e-007
Heightened Def Con from 2.05701e-007 to 2.05702e-007
Heightened Def Con from 2.05702e-007 to 2.05702e-007
Heightened Def Con from 2.05702e-007 to 2.05718e-007
Heightened Def Con from 2.05718e-007 to 2.05718e-007
Heightened Def Con from 2.05718e-007 to 2.05718e-007
Heightened Def Con from 2.05719e-007 to 2.05719e-007
Heightened Def Con from 2.05719e-007 to 2.05734e-007
Heightened Def Con from 2.05734e-007 to 2.05734e-007
Heightened Def Con from 2.05734e-007 +to 2.05734e-007
Heightened Def Con from 2.05734e-007 to 2.06736e-007
Heightened Def Con from 2.06736e-007 to 2.06737e-007
Heightened Def Con from 2.06737e-007 to 2.06878e-007
Heightened Def Con from 2.06878e-007 to 2.0688e-007
Heightened Def Con from 2.0688e-007 to 2.0788e-007
Heightened Def Con from 2.07881e-007 to 2.08006e-007
Heightened Def Con from 2.08006e-007 to 2.08006e-007
Heightened Def Con from 2.08007e-007 to 2.08009e-007
Heightened Def Con from 2.08009e-007 to 2.08009e-007
Heightened Def Con from 2.0801e-007 to 2.08012e-007
Heightened Def Con from 2.08012e-007 to 2.08012e-007
Heightened Def Con from 2.08012e-007 to 2.08012e-007
Heightened Def Con from 2.08012e-007 to 2.08012e-007
Heightened Def Con from 2.08012e-007 to 2.08014e-007
Heightened Def Con from 2.08015e-007 to 2.08015e-007
Heightened Def Con from 2.08015e-007 to 2.0814e-007
Heightened Def Con from 2.0814e-007 to 2.0814e-007
Heightened Def Con from 2.0814e-007 to 2.0814e-007
Heightened Def Con from 2.0814e-007 to 2.08141e-007
Heightened Def Con from 2.08141e-007 to 2.08143e-007
Heightened Def Con from 2.08143e-007 to 2.08268e-007
Heightened Def Con from 2.08268e-007 to 2.08269e-007
Heightened Def Con from 2.08269e-007 to 2.08271e-007
Heightened Def Con from 2.08271e-007 to 2.08271e-007
Heightened Def Con from 2.08271e-007 to 2.08274e-007
Heightened Def Con from 2.08274e-007 to 2.08274e-007
Heightened Def Con from 2.08274e-007 to 2.08275e-007
Heightened Def Con from 2.08275e-007 to 2.09275e-007
Heightened Def Con from 2.09275e-007 to 2.09275e-007
Heightened Def Con from 2.09275e-007 to 2.09275e-007
Heightened Def Con from 2.09275e-007 to 2.10275e-007
Heightened Def Con from 2.10275e-007 to 2.104e-007
Heightened Def Con from 2.104e-007 to 2.104e-007
Heightened Def Con from 2.10401e-007 to 2.10416e-007
Heightened Def Con from 2.10416e-007 to 2.10418e-007
Heightened Def Con from 2.10419e-007 to 2.10422e-007
Heightened Def Con from 2.10422e-007 to 2.10422e-007
Heightened Def Con from 2.10422e-007 to 2.10422e-007
Heightened Def Con from 2.10422e-007 to 2.10423e-007
Heightened Def Con from 2.10423e-007 to 2.10423e-007
Heightened Def Con from 2.10423e-007 to 2.10423e-007
Heightened Def Con from 2.10423e-007 to 2.10423e-007
Heightened Def Con from 2.10423e-007 to 2.10424e-007
Heightened Def Con from 2.10424e-007 to 2.10424e-007
Heightened Def Con from 2.10424e-007 to 2.10424e-007
Heightened Def Con from 2.10425e-007 to 2.10425e-007
Heightened Def Con from 2.10425e-007 to 2.10425e-007
Heightened Def Con from 2.10425e-007 to 2.10427e-007
Heightened Def Con from 2.10427e-007 to 2.10427e-007
Heightened Def Con from 2.10427e-007 to 2.10427e-007
Heightened Def Con from 2.10427e-007 to 2.11443e-007
Heightened Def Con from 2.11444e-007 to 2.11444e-007
Heightened Def Con from 2.11444e-007 to 2.11444e-007
Heightened Def Con from 2.11445e-007 to 2.11445e-007
Heightened Def Con from 2.11445e-007 to 2.11445e-007
Heightened Def Con from 2.11446e-007 to 2.11448e-007
Heightened Def Con from 2.11448e-007 to 2.11448e-007
Heightened Def Con from 2.11449e-007 to 2.11449e-007
Heightened Def Con from 2.11449e-007 to 2.1145e-007
Heightened Def Con from 2.1145e-007 to 2.1245e-007
Heightened Def Con from 2.12451e-007 to 2.12451e-007
Heightened Def Con from 2.12451e-007 to 2.13451e-007
Heightened Def Con from 2.13451e-007 to 2.13451e-007
Heightened Def Con from 2.13452e-007 to 2.13452e-007
Heightened Def Con from 2.13452e-007 to 2.13454e-007
Heightened Def Con from 2.13454e-007 to 2.13454e-007
Heightened Def Con from 2.13454e-007 to 2.13454e-007
Heightened Def Con from 2.13454e-007 to 2.13454e-007
Heightened Def Con from 2.13455e-007 to 2.1347e-007
Heightened Def Con from 2.13471e-007 to 2.13471e-007
Heightened Def Con from 2.13471e-007 to 2.13597e-007
Heightened Def Con from 2.13597e-007 to 2.13599e-007
Heightened Def Con from 2.13599e-007 to 2.14599e-007
Heightened Def Con from 2.146e-007 to 2.146e-007
Heightened Def Con from 2.146e-007 to 2.146e-007
Heightened Def Con from 2.146e-007 to 2.146e-007
Heightened Def Con from 2.146e-007 to 2.14616e-007
Heightened Def Con from 2.14616e-007 to 2.14741e-007
Heightened Def Con from 2.14741e-007 to 2.14742e-007
Heightened Def Con from 2.14742e-007 to 2.14744e-007
Heightened Def Con from 2.14744e-007 to 2.14744e-007
Heightened Def Con from 2.14744e-007 to 2.14744e-007
Heightened Def Con from 2.14744e-007 to 2.14764e-007
Heightened Def Con from 2.14764e-007 to 2.15889e-007
Heightened Def Con from 2.15889e-007 to 2.1589e-007
Heightened Def Con from 2.1589e-007 to 2.1589e-007
Heightened Def Con from 2.1589e-007 to 2.16015e-007
Heightened Def Con from 2.16015e-007 to 2.17015e-007
Heightened Def Con from 2.17015e-007 to 2.17015e-007
Heightened Def Con from 2.17016e-007 to 2.17016e-007
Heightened Def Con from 2.17016e-007 to 2.17016e-007
Heightened Def Con from 2.17017e-007 to 2.17017e-007
Heightened Def Con from 2.17017e-007 to 2.17033e-007
Heightened Def Con from 2.17033e-007 to 2.17033e-007
Heightened Def Con from 2.17033e-007 to 2.19035e-007
Heightened Def Con from 2.19035e-007 to 2.19035e-007
Heightened Def Con from 2.19035e-007 to 2.19035e-007
Heightened Def Con from 2.19035e-007 to 2.19036e-007
Heightened Def Con from 2.19036e-007 to 2.19036e-007
Heightened Def Con from 2.19036e-007 to 2.20038e-007
Heightened Def Con from 2.20042e-007 to 2.20044e-007
Heightened Def Con from 2.20044e-007 to 2.20044e-007
Heightened Def Con from 2.20044e-007 to 2.20044e-007
Heightened Def Con from 2.20044e-007 to 2.20045e-007
Heightened Def Con from 2.20045e-007 to 2.20045e-007
Heightened Def Con from 2.20045e-007 to 2.20295e-007
Heightened Def Con from 2.20295e-007 to 2.2142e-007
Heightened Def Con from 2.2142e-007 to 2.22422e-007
Heightened Def Con from 2.22426e-007 to 2.22426e-007
Heightened Def Con from 2.22426e-007 to 2.22426e-007
Heightened Def Con from 2.22427e-007 to 2.22427e-007
Heightened Def Con from 2.22427e-007 to 2.22427e-007
Heightened Def Con from 2.22427e-007 to 2.22428e-007
Heightened Def Con from 2.22428e-007 to 2.22428e-007
Heightened Def Con from 2.22428e-007 to 2.22428e-007
Heightened Def Con from 2.22428e-007 to 2.23443e-007
Heightened Def Con from 2.23443e-007 to 2.23568e-007
Heightened Def Con from 2.23568e-007 to 2.23568e-007
Heightened Def Con from 2.23569e-007 to 2.24569e-007
Heightened Def Con from 2.24569e-007 to 2.2471e-007
Heightened Def Con from 2.2471e-007 to 2.2471e-007
Heightened Def Con from 2.2471e-007 to 2.2471e-007
Heightened Def Con from 2.2471e-007 to 2.24851e-007
Heightened Def Con from 2.24851e-007 to 2.25851e-007
Heightened Def Con from 2.25851e-007 to 2.26851e-007
Heightened Def Con from 2.26852e-007 to 2.26852e-007
Heightened Def Con from 2.26852e-007 to 2.26852e-007
Heightened Def Con from 2.26852e-007 to 2.26868e-007
Heightened Def Con from 2.26868e-007 to 2.29868e-007
Heightened Def Con from 2.29869e-007 to 2.30119e-007
Heightened Def Con from 2.3012e-007 to 2.3012e-007
Heightened Def Con from 2.3012e-007 to 2.30121e-007
Heightened Def Con from 2.30121e-007 to 2.30123e-007
Heightened Def Con from 2.30123e-007 to 2.30123e-007
Heightened Def Con from 2.30123e-007 to 2.30123e-007
Heightened Def Con from 2.30123e-007 to 2.30123e-007
Heightened Def Con from 2.30123e-007 to 2.30123e-007
Heightened Def Con from 2.30123e-007 to 2.3025e-007
Heightened Def Con from 2.3025e-007 to 2.30266e-007
Heightened Def Con from 2.30267e-007 to 2.30267e-007
Heightened Def Con from 2.30267e-007 to 2.30267e-007
Heightened Def Con from 2.30267e-007 to 2.30267e-007
Heightened Def Con from 2.30268e-007 to 2.30395e-007
Heightened Def Con from 2.30395e-007 to 2.3052e-007
Heightened Def Con from 2.3052e-007 to 2.3152e-007
Heightened Def Con from 2.3152e-007 to 2.31521e-007
Heightened Def Con from 2.31521e-007 to 2.31552e-007
Heightened Def Con from 2.31552e-007 to 2.31553e-007
Heightened Def Con from 2.31553e-007 to 2.31557e-007
Heightened Def Con from 2.31557e-007 to 2.31558e-007
Heightened Def Con from 2.31558e-007 to 2.3156e-007
Heightened Def Con from 2.3156e-007 to 2.31562e-007
Heightened Def Con from 2.31562e-007 to 2.31566e-007
Heightened Def Con from 2.31566e-007 to 2.31692e-007
Heightened Def Con from 2.31692e-007 to 2.32692e-007
Heightened Def Con from 2.32692e-007 to 2.33817e-007
Heightened Def Con from 2.33818e-007 to 2.34834e-007
Heightened Def Con from 2.34834e-007 to 2.35959e-007
Heightened Def Con from 2.35959e-007 to 2.35975e-007
Heightened Def Con from 2.35975e-007 to 2.35978e-007
Heightened Def Con from 2.35978e-007 to 2.36978e-007
Heightened Def Con from 2.36978e-007 to 2.36994e-007
Heightened Def Con from 2.36994e-007 to 2.37619e-007
Heightened Def Con from 2.3762e-007 to 2.3762e-007
Heightened Def Con from 2.3762e-007 to 2.3762e-007
Heightened Def Con from 2.3762e-007 to 2.3762e-007
Heightened Def Con from 2.3762e-007 to 2.37621e-007
Heightened Def Con from 2.37621e-007 to 2.37623e-007
Heightened Def Con from 2.37623e-007 to 2.38623e-007
Heightened Def Con from 2.38623e-007 to 2.38623e-007
Heightened Def Con from 2.38623e-007 to 2.38623e-007
Heightened Def Con from 2.38624e-007 to 2.39639e-007
Heightened Def Con from 2.39641e-007 to 2.39641e-007
Heightened Def Con from 2.39641e-007 to 2.39641e-007
Heightened Def Con from 2.39641e-007 to 2.39641e-007
Heightened Def Con from 2.39641e-007 to 2.39641e-007
Heightened Def Con from 2.39642e-007 to 2.40769e-007
Heightened Def Con from 2.40769e-007 to 2.40894e-007
Heightened Def Con from 2.40894e-007 +to 2.40894e-007
Heightened Def Con from 2.40894e-007 to 2.41894e-007
Heightened Def Con from 2.41895e-007 to 2.41895e-007
Heightened Def Con from 2.41895e-007 to 2.41896e-007
Heightened Def Con from 2.41896e-007 to 2.41911e-007
Heightened Def Con from 2.41911e-007 to 2.41913e-007
Heightened Def Con from 2.41913e-007 to 2.42913e-007
Heightened Def Con from 2.42913e-007 to 2.43289e-007
Heightened Def Con from 2.43289e-007 to 2.43289e-007
Heightened Def Con from 2.43289e-007 to 2.43289e-007
Heightened Def Con from 2.4329e-007 to 2.43305e-007
Heightened Def Con from 2.43306e-007 to 2.44306e-007
Heightened Def Con from 2.44306e-007 to 2.44433e-007
Heightened Def Con from 2.44433e-007 to 2.44433e-007
Heightened Def Con from 2.44433e-007 to 2.44449e-007
Heightened Def Con from 2.44449e-007 to 2.44465e-007
Heightened Def Con from 2.44465e-007 to 2.45605e-007
Heightened Def Con from 2.45606e-007 to 2.46732e-007
Heightened Def Con from 2.46733e-007 to 2.46733e-007
Heightened Def Con from 2.46733e-007 to 2.46733e-007
Heightened Def Con from 2.46733e-007 to 2.46733e-007
Heightened Def Con from 2.46733e-007 to 2.46733e-007
Heightened Def Con from 2.46733e-007 to 2.46749e-007
Heightened Def Con from 2.46749e-007 to 2.46749e-007
Heightened Def Con from 2.46749e-007 to 2.46765e-007
Heightened Def Con from 2.46765e-007 to 2.46781e-007
Heightened Def Con from 2.46781e-007 to 2.46783e-007
Heightened Def Con from 2.46783e-007 to 2.46783e-007
Heightened Def Con from 2.46783e-007 to 2.47033e-007
Heightened Def Con from 2.47033e-007 to 2.47033e-007
Heightened Def Con from 2.47033e-007 to 2.47034e-007
Heightened Def Con from 2.47034e-007 to 2.47034e-007
Heightened Def Con from 2.47034e-007 to 2.4905e-007
Heightened Def Con from 2.4905e-007 +to 2.49051e-007
Heightened Def Con from 2.49052e-007 to 2.49177e-007
Heightened Def Con from 2.49177e-007 to 2.49195e-007
Heightened Def Con from 2.49195e-007 to 2.49196e-007
Heightened Def Con from 2.49196e-007 to 2.50196e-007
Heightened Def Con from 2.50196e-007 to 2.50196e-007
Heightened Def Con from 2.50196e-007 to 2.50197e-007
Heightened Def Con from 2.50197e-007 to 2.50337e-007
Heightened Def Con from 2.50337e-007 to 2.50353e-007
Heightened Def Con from 2.50353e-007 to 2.50353e-007
Heightened Def Con from 2.50353e-007 to 2.50355e-007
Heightened Def Con from 2.50355e-007 to 2.50356e-007
Heightened Def Con from 2.50356e-007 to 2.50481e-007
Heightened Def Con from 2.50481e-007 to 2.50487e-007
Heightened Def Con from 2.50487e-007 to 2.50487e-007
Heightened Def Con from 2.50487e-007 to 2.50489e-007
Heightened Def Con from 2.50489e-007 to 2.50505e-007
Heightened Def Con from 2.50505e-007 to 2.50507e-007
Heightened Def Con from 2.50507e-007 to 2.51507e-007
Heightened Def Con from 2.51507e-007 to 2.51633e-007
Heightened Def Con from 2.51633e-007 to 2.51633e-007
Heightened Def Con from 2.51633e-007 to 2.51634e-007
Heightened Def Con from 2.51634e-007 to 2.51634e-007
Heightened Def Con from 2.51634e-007 to 2.51635e-007
Heightened Def Con from 2.51635e-007 to 2.51635e-007
Heightened Def Con from 2.51635e-007 to 2.51635e-007
Heightened Def Con from 2.51636e-007 to 2.51653e-007
Heightened Def Con from 2.51653e-007 +to 2.51655e-007
Heightened Def Con from 2.51656e-007 to 2.51656e-007
Heightened Def Con from 2.51656e-007 to 2.51656e-007
Heightened Def Con from 2.51656e-007 to 2.51657e-007
Heightened Def Con from 2.51657e-007 to 2.51657e-007
Heightened Def Con from 2.51657e-007 to 2.51657e-007
Heightened Def Con from 2.51657e-007 to 2.51657e-007
Heightened Def Con from 2.51658e-007 to 2.51658e-007
Heightened Def Con from 2.51658e-007 to 2.51658e-007
Heightened Def Con from 2.51659e-007 to 2.51659e-007
Heightened Def Con from 2.51659e-007 to 2.51659e-007
Heightened Def Con from 2.5166e-007 to 2.5166e-007
Heightened Def Con from 2.5166e-007 to 2.51664e-007
Heightened Def Con from 2.51665e-007 to 2.51666e-007
Heightened Def Con from 2.51666e-007 to 2.51666e-007
Heightened Def Con from 2.51667e-007 to 2.51667e-007
Heightened Def Con from 2.51667e-007 to 2.51667e-007
Heightened Def Con from 2.51668e-007 to 2.51668e-007
Heightened Def Con from 2.51668e-007 to 2.5167e-007
Heightened Def Con from 2.5167e-007 to 2.5167e-007
Heightened Def Con from 2.5167e-007 to 2.5167e-007
Heightened Def Con from 2.5167e-007 to 2.5167e-007
Heightened Def Con from 2.5167e-007 to 2.51671e-007
Heightened Def Con from 2.51671e-007 to 2.51673e-007
Heightened Def Con from 2.51673e-007 to 2.51798e-007
Heightened Def Con from 2.51798e-007 to 2.51798e-007
Heightened Def Con from 2.51799e-007 to 2.51799e-007
Heightened Def Con from 2.51799e-007 to 2.51801e-007
Heightened Def Con from 2.51802e-007 to 2.51802e-007
Heightened Def Con from 2.51802e-007 to 2.51802e-007
Heightened Def Con from 2.51802e-007 to 2.51818e-007
Heightened Def Con from 2.51818e-007 +to 2.52068e-007
Heightened Def Con from 2.52069e-007 to 2.52071e-007
Heightened Def Con from 2.52071e-007 to 2.52071e-007
Heightened Def Con from 2.52071e-007 to 2.52071e-007
Heightened Def Con from 2.52071e-007 to 2.52321e-007
Heightened Def Con from 2.52321e-007 to 2.52321e-007
Heightened Def Con from 2.52321e-007 to 2.52321e-007
Heightened Def Con from 2.52321e-007 to 2.52321e-007
Heightened Def Con from 2.52321e-007 to 2.52321e-007
Heightened Def Con from 2.52322e-007 to 2.52323e-007
Heightened Def Con from 2.52324e-007 to 2.52339e-007
Heightened Def Con from 2.5234e-007 to 2.52465e-007
Heightened Def Con from 2.52465e-007 to 2.52467e-007
Heightened Def Con from 2.52467e-007 to 2.52467e-007
Heightened Def Con from 2.52468e-007 to 2.5247e-007
Heightened Def Con from 2.5247e-007 to 2.5247e-007
Heightened Def Con from 2.5247e-007 to 2.5247e-007
Heightened Def Con from 2.5247e-007 to 2.52471e-007
Heightened Def Con from 2.52471e-007 to 2.52721e-007
Heightened Def Con from 2.52721e-007 to 2.53721e-007
Heightened Def Con from 2.53721e-007 to 2.53723e-007
Heightened Def Con from 2.53723e-007 to 2.53739e-007
Heightened Def Con from 2.53739e-007 to 2.53739e-007
Heightened Def Con from 2.53739e-007 +to 2.5374e-007
Heightened Def Con from 2.5374e-007 to 2.5374e-007
Heightened Def Con from 2.5374e-007 to 2.53865e-007
Heightened Def Con from 2.53866e-007 to 2.53866e-007
Heightened Def Con from 2.53866e-007 to 2.53991e-007
Heightened Def Con from 2.53991e-007 to 2.53991e-007
Heightened Def Con from 2.53991e-007 to 2.53991e-007
Heightened Def Con from 2.53992e-007 to 2.53992e-007
Heightened Def Con from 2.53992e-007 to 2.53994e-007
Heightened Def Con from 2.53994e-007 to 2.53994e-007
Heightened Def Con from 2.53994e-007 to 2.53994e-007
Heightened Def Con from 2.53994e-007 to 2.53996e-007
Heightened Def Con from 2.53997e-007 to 2.54012e-007
Heightened Def Con from 2.54012e-007 to 2.54012e-007
Heightened Def Con from 2.54012e-007 to 2.54013e-007
Heightened Def Con from 2.54013e-007 to 2.54015e-007
Heightened Def Con from 2.54015e-007 to 2.54015e-007
Heightened Def Con from 2.54015e-007 to 2.54015e-007
Heightened Def Con from 2.54015e-007 to 2.54015e-007
Heightened Def Con from 2.54015e-007 to 2.54015e-007
Heightened Def Con from 2.54015e-007 to 2.54015e-007
Heightened Def Con from 2.54016e-007 to 2.54031e-007
Heightened Def Con from 2.54032e-007 to 2.54033e-007
Heightened Def Con from 2.54034e-007 to 2.54159e-007
Heightened Def Con from 2.54159e-007 to 2.54159e-007
Heightened Def Con from 2.54159e-007 to 2.54161e-007
Heightened Def Con from 2.54161e-007 to 2.54161e-007
Heightened Def Con from 2.54161e-007 to 2.54161e-007
Heightened Def Con from 2.54161e-007 to 2.54161e-007
Heightened Def Con from 2.54161e-007 to 2.54163e-007
Heightened Def Con from 2.54164e-007 to 2.54164e-007
Heightened Def Con from 2.54164e-007 to 2.54164e-007
Heightened Def Con from 2.54165e-007 to 2.54165e-007
Heightened Def Con from 2.54165e-007 to 2.55165e-007
Heightened Def Con from 2.55165e-007 to 2.5529e-007
Heightened Def Con from 2.5529e-007 to 2.5529e-007
Heightened Def Con from 2.55291e-007 to 2.55431e-007
Heightened Def Con from 2.55431e-007 to 2.55432e-007
Heightened Def Con from 2.55432e-007 to 2.55432e-007
Heightened Def Con from 2.55432e-007 to 2.55432e-007
Heightened Def Con from 2.55432e-007 to 2.55432e-007
Heightened Def Con from 2.55432e-007 to 2.55448e-007
Heightened Def Con from 2.55448e-007 to 2.55448e-007
Heightened Def Con from 2.55448e-007 to 2.56448e-007
Heightened Def Con from 2.56449e-007 to 2.56449e-007
Heightened Def Con from 2.5645e-007 to 2.5645e-007
Heightened Def Con from 2.5645e-007 to 2.5645e-007
Heightened Def Con from 2.5645e-007 to 2.5645e-007
Heightened Def Con from 2.5645e-007 to 2.56451e-007
Heightened Def Con from 2.56451e-007 to 2.57453e-007
Heightened Def Con from 2.57453e-007 to 2.58453e-007
Heightened Def Con from 2.58454e-007 to 2.58454e-007
Heightened Def Con from 2.58454e-007 to 2.58454e-007
Heightened Def Con from 2.58454e-007 to 2.5847e-007
Heightened Def Con from 2.5847e-007 to 2.58486e-007
Heightened Def Con from 2.58486e-007 to 2.58487e-007
Heightened Def Con from 2.58487e-007 to 2.58487e-007
Heightened Def Con from 2.58487e-007 to 2.58489e-007
Heightened Def Con from 2.5849e-007 to 2.5849e-007
Heightened Def Con from 2.5849e-007 to 2.5949e-007
Heightened Def Con from 2.59491e-007 to 2.59493e-007
Heightened Def Con from 2.59493e-007 to 2.59493e-007
Heightened Def Con from 2.59493e-007 to 2.59493e-007
Heightened Def Con from 2.59493e-007 to 2.59493e-007
Heightened Def Con from 2.59493e-007 to 2.59618e-007
Heightened Def Con from 2.59618e-007 to 2.59618e-007
Heightened Def Con from 2.59618e-007 to 2.59619e-007
Heightened Def Con from 2.59619e-007 to 2.59621e-007
Heightened Def Con from 2.59621e-007 to 2.59621e-007
Heightened Def Con from 2.59621e-007 to 2.59622e-007
Heightened Def Con from 2.59622e-007 to 2.59624e-007
Heightened Def Con from 2.59624e-007 to 2.59626e-007
Heightened Def Con from 2.59626e-007 to 2.60626e-007
Heightened Def Con from 2.60626e-007 to 2.60626e-007
Heightened Def Con from 2.60626e-007 to 2.60626e-007
Heightened Def Con from 2.60626e-007 to 2.60626e-007
Heightened Def Con from 2.60627e-007 to 2.60627e-007
Heightened Def Con from 2.60627e-007 to 2.61627e-007
Heightened Def Con from 2.61627e-007 to 2.61627e-007
Heightened Def Con from 2.61627e-007 to 2.61629e-007
Heightened Def Con from 2.61629e-007 to 2.6163e-007
Heightened Def Con from 2.6163e-007 to 2.6163e-007
Heightened Def Con from 2.6163e-007 to 2.61631e-007
Heightened Def Con from 2.61631e-007 to 2.61633e-007
Heightened Def Con from 2.61633e-007 to 2.61635e-007
Heightened Def Con from 2.61635e-007 to 2.62635e-007
Heightened Def Con from 2.62635e-007 to 2.62635e-007
Heightened Def Con from 2.62636e-007 to 2.63636e-007
Heightened Def Con from 2.63636e-007 to 2.63761e-007
Heightened Def Con from 2.63761e-007 to 2.63763e-007
Heightened Def Con from 2.63763e-007 to 2.63765e-007
Heightened Def Con from 2.63766e-007 to 2.63768e-007
Heightened Def Con from 2.63768e-007 to 2.63768e-007
Heightened Def Con from 2.63768e-007 to 2.63769e-007
Heightened Def Con from 2.63769e-007 to 2.63771e-007
Heightened Def Con from 2.63771e-007 to 2.63771e-007
Heightened Def Con from 2.63771e-007 to 2.63772e-007
Heightened Def Con from 2.63773e-007 to 2.63773e-007
Heightened Def Con from 2.63773e-007 to 2.63774e-007
Heightened Def Con from 2.63775e-007 to 2.63775e-007
Heightened Def Con from 2.63775e-007 to 2.63777e-007
Heightened Def Con from 2.63777e-007 to 2.63777e-007
Heightened Def Con from 2.63777e-007 to 2.63778e-007
Heightened Def Con from 2.63778e-007 to 2.63778e-007
Heightened Def Con from 2.63778e-007 to 2.63779e-007
Heightened Def Con from 2.63779e-007 to 2.63779e-007
Heightened Def Con from 2.63779e-007 to 2.63779e-007
Heightened Def Con from 2.63779e-007 to 2.63779e-007
Heightened Def Con from 2.63779e-007 to 2.63781e-007
Heightened Def Con from 2.63782e-007 to 2.63783e-007
Heightened Def Con from 2.63783e-007 to 2.63784e-007
Heightened Def Con from 2.63784e-007 to 2.63784e-007
Heightened Def Con from 2.63784e-007 to 2.63784e-007
Heightened Def Con from 2.63784e-007 to 2.63786e-007
Heightened Def Con from 2.63786e-007 to 2.63786e-007
Heightened Def Con from 2.63787e-007 to 2.63787e-007
Heightened Def Con from 2.63787e-007 to 2.63788e-007
Heightened Def Con from 2.63788e-007 to 2.63913e-007
Heightened Def Con from 2.63913e-007 to 2.65913e-007
Heightened Def Con from 2.65914e-007 to 2.65916e-007
Heightened Def Con from 2.65916e-007 to 2.67916e-007
Heightened Def Con from 2.67916e-007 to 2.68166e-007
Heightened Def Con from 2.68166e-007 to 2.69166e-007
Heightened Def Con from 2.69166e-007 to 2.69166e-007
Heightened Def Con from 2.69166e-007 to 2.69166e-007
Heightened Def Con from 2.69167e-007 to 2.69183e-007
Heightened Def Con from 2.69183e-007 to 2.69183e-007
Heightened Def Con from 2.69183e-007 to 2.69183e-007
Heightened Def Con from 2.69183e-007 to 2.69183e-007
Heightened Def Con from 2.69183e-007 to 2.69184e-007
Heightened Def Con from 2.69184e-007 to 2.69184e-007
Heightened Def Con from 2.69184e-007 to 2.70184e-007
Heightened Def Con from 2.70184e-007 to 2.702e-007
Heightened Def Con from 2.702e-007 to 2.702e-007
Heightened Def Con from 2.702e-007 to 2.70216e-007
Heightened Def Con from 2.70216e-007 to 2.70216e-007
Heightened Def Con from 2.70216e-007 to 2.70216e-007
Heightened Def Con from 2.70216e-007 to 2.70216e-007
Heightened Def Con from 2.70217e-007 to 2.70219e-007
Heightened Def Con from 2.70219e-007 to 2.70219e-007
Heightened Def Con from 2.70219e-007 to 2.70234e-007
Heightened Def Con from 2.70235e-007 to 2.70266e-007
Heightened Def Con from 2.70266e-007 to 2.70266e-007
Heightened Def Con from 2.70266e-007 to 2.70266e-007
Heightened Def Con from 2.70266e-007 to 2.70266e-007
Heightened Def Con from 2.70266e-007 to 2.70297e-007
Heightened Def Con from 2.70298e-007 +to 2.70329e-007
Heightened Def Con from 2.70329e-007 to 2.7033e-007
Heightened Def Con from 2.7033e-007 to 2.7133e-007
Heightened Def Con from 2.7133e-007 to 2.71346e-007
Heightened Def Con from 2.71346e-007 to 2.71347e-007
Heightened Def Con from 2.71348e-007 to 2.71473e-007
Heightened Def Con from 2.71473e-007 to 2.71475e-007
Heightened Def Con from 2.71475e-007 to 2.71475e-007
Heightened Def Con from 2.71475e-007 to 2.71475e-007
Heightened Def Con from 2.71476e-007 to 2.71476e-007
Heightened Def Con from 2.71476e-007 to 2.71476e-007
Heightened Def Con from 2.71477e-007 to 2.71479e-007
Heightened Def Con from 2.71479e-007 to 2.71481e-007
Heightened Def Con from 2.71481e-007 to 2.71481e-007
Heightened Def Con from 2.71481e-007 to 2.71496e-007
Heightened Def Con from 2.71497e-007 to 2.7153e-007
Heightened Def Con from 2.7153e-007 to 2.7153e-007
Heightened Def Con from 2.7153e-007 to 2.71531e-007
Heightened Def Con from 2.71531e-007 to 2.7155e-007
Heightened Def Con from 2.7155e-007 to 2.7155e-007
Heightened Def Con from 2.71551e-007 to 2.72566e-007
Heightened Def Con from 2.7259e-007 to 2.72592e-007
Heightened Def Con from 2.72592e-007 to 2.72732e-007
Heightened Def Con from 2.72732e-007 to 2.72739e-007
Heightened Def Con from 2.72739e-007 to 2.73739e-007
Heightened Def Con from 2.73739e-007 to 2.73864e-007
Heightened Def Con from 2.73865e-007 to 2.73867e-007
Heightened Def Con from 2.73867e-007 to 2.73867e-007
Heightened Def Con from 2.73867e-007 to 2.74867e-007
Heightened Def Con from 2.74867e-007 to 2.74867e-007
Heightened Def Con from 2.74867e-007 to 2.74867e-007
Heightened Def Con from 2.74867e-007 to 2.74883e-007
Heightened Def Con from 2.74883e-007 to 2.74883e-007
Heightened Def Con from 2.74883e-007 to 2.74883e-007
Heightened Def Con from 2.74883e-007 to 2.77133e-007
Heightened Def Con from 2.77133e-007 to 2.77133e-007
Heightened Def Con from 2.77133e-007 to 2.77133e-007
Heightened Def Con from 2.77133e-007 to 2.77134e-007
Heightened Def Con from 2.77134e-007 to 2.7715e-007
Heightened Def Con from 2.7715e-007 to 2.77152e-007
Heightened Def Con from 2.77152e-007 to 2.77152e-007
Heightened Def Con from 2.77153e-007 to 2.77153e-007
Heightened Def Con from 2.77153e-007 to 2.7728e-007
Heightened Def Con from 2.7728e-007 to 2.7728e-007
Heightened Def Con from 2.7728e-007 to 2.77405e-007
Heightened Def Con from 2.77405e-007 to 2.78405e-007
Heightened Def Con from 2.78406e-007 to 2.78421e-007
Heightened Def Con from 2.78421e-007 to 2.78422e-007
Heightened Def Con from 2.78422e-007 to 2.79422e-007
Heightened Def Con from 2.79422e-007 to 2.79438e-007
Heightened Def Con from 2.79438e-007 to 2.79438e-007
Heightened Def Con from 2.79438e-007 to 2.79563e-007
Heightened Def Con from 2.79563e-007 to 2.79563e-007
Heightened Def Con from 2.79563e-007 to 2.79579e-007
Heightened Def Con from 2.79579e-007 to 2.79579e-007
Heightened Def Con from 2.79579e-007 to 2.79579e-007
Heightened Def Con from 2.79579e-007 to 2.7958e-007
Heightened Def Con from 2.7958e-007 to 2.79582e-007
Heightened Def Con from 2.79582e-007 to 2.79582e-007
Heightened Def Con from 2.79582e-007 to 2.79598e-007
Heightened Def Con from 2.79598e-007 to 2.79598e-007
Heightened Def Con from 2.79598e-007 to 2.79613e-007
Heightened Def Con from 2.79613e-007 to 2.80615e-007
Heightened Def Con from 2.80615e-007 to 2.80617e-007
Heightened Def Con from 2.80617e-007 to 2.80633e-007
Heightened Def Con from 2.80633e-007 to 2.80633e-007
Heightened Def Con from 2.80633e-007 to 2.80633e-007
Heightened Def Con from 2.80634e-007 to 2.80634e-007
Heightened Def Con from 2.80634e-007 to 2.80635e-007
Heightened Def Con from 2.80635e-007 to 2.80635e-007
Heightened Def Con from 2.80635e-007 to 2.8065e-007
Heightened Def Con from 2.80651e-007 to 2.80654e-007
Heightened Def Con from 2.80655e-007 to 2.80655e-007
Heightened Def Con from 2.80655e-007 to 2.80655e-007
Heightened Def Con from 2.80655e-007 to 2.80655e-007
Heightened Def Con from 2.80656e-007 to 2.80687e-007
Heightened Def Con from 2.80687e-007 to 2.81937e-007
Heightened Def Con from 2.81937e-007 to 2.82062e-007
Heightened Def Con from 2.82062e-007 to 2.82062e-007
Heightened Def Con from 2.82062e-007 to 2.83062e-007
Heightened Def Con from 2.83062e-007 to 2.83078e-007
Heightened Def Con from 2.83078e-007 to 2.8308e-007
Heightened Def Con from 2.8308e-007 to 2.8408e-007
Heightened Def Con from 2.8408e-007 to 2.8408e-007
Heightened Def Con from 2.84081e-007 to 2.84083e-007
Heightened Def Con from 2.84083e-007 to 2.84085e-007
Heightened Def Con from 2.84085e-007 to 2.84085e-007
Heightened Def Con from 2.84086e-007 to 2.84088e-007
Heightened Def Con from 2.84088e-007 to 2.84103e-007
Heightened Def Con from 2.84103e-007 to 2.84105e-007
Heightened Def Con from 2.84105e-007 to 2.84106e-007
Heightened Def Con from 2.84106e-007 to 2.84106e-007
Heightened Def Con from 2.84106e-007 to 2.84137e-007
Heightened Def Con from 2.84138e-007 to 2.84138e-007
Heightened Def Con from 2.84138e-007 to 2.84138e-007
Heightened Def Con from 2.84138e-007 to 2.84154e-007
Heightened Def Con from 2.84154e-007 to 2.84154e-007
Heightened Def Con from 2.84155e-007 to 2.84155e-007
Heightened Def Con from 2.84155e-007 to 2.84155e-007
Heightened Def Con from 2.84155e-007 to 2.84155e-007
Heightened Def Con from 2.84155e-007 to 2.84155e-007
Heightened Def Con from 2.84155e-007 to 2.84282e-007
Heightened Def Con from 2.84282e-007 to 2.85298e-007
Heightened Def Con from 2.85299e-007 to 2.85299e-007
Heightened Def Con from 2.85299e-007 to 2.85299e-007
Heightened Def Con from 2.85299e-007 to 2.85424e-007
Heightened Def Con from 2.85424e-007 to 2.85424e-007
Heightened Def Con from 2.85424e-007 +to 2.86549e-007
Heightened Def Con from 2.86549e-007 to 2.8655e-007
Heightened Def Con from 2.8655e-007 to 2.86566e-007
Heightened Def Con from 2.86566e-007 to 2.87566e-007
Heightened Def Con from 2.87566e-007 to 2.87581e-007
Heightened Def Con from 2.87581e-007 to 2.88581e-007
Heightened Def Con from 2.88582e-007 to 2.88582e-007
Heightened Def Con from 2.88582e-007 to 2.88583e-007
Heightened Def Con from 2.88583e-007 to 2.88614e-007
Heightened Def Con from 2.88614e-007 to 2.88864e-007
Heightened Def Con from 2.88864e-007 to 2.88991e-007
Heightened Def Con from 2.88991e-007 to 2.89007e-007
Heightened Def Con from 2.89007e-007 to 2.89038e-007
Heightened Def Con from 2.89038e-007 to 2.89038e-007
Heightened Def Con from 2.89039e-007 to 2.89042e-007
Heightened Def Con from 2.89043e-007 to 2.89058e-007
Heightened Def Con from 2.89059e-007 to 2.90059e-007
Heightened Def Con from 2.90059e-007 to 2.90186e-007
Heightened Def Con from 2.9019e-007 to 2.90205e-007
Heightened Def Con from 2.90205e-007 to 2.90221e-007
Heightened Def Con from 2.90221e-007 to 2.90221e-007
Heightened Def Con from 2.90222e-007 to 2.90222e-007
Heightened Def Con from 2.90222e-007 to 2.91222e-007
Heightened Def Con from 2.91222e-007 to 2.91347e-007
Heightened Def Con from 2.91347e-007 to 2.91472e-007
Heightened Def Con from 2.91472e-007 to 2.91472e-007
Heightened Def Con from 2.91472e-007 to 2.91472e-007
Heightened Def Con from 2.91472e-007 to 2.91472e-007
Heightened Def Con from 2.91472e-007 to 2.91473e-007
Heightened Def Con from 2.91473e-007 to 2.91598e-007
Heightened Def Con from 2.91598e-007 to 2.91598e-007
Heightened Def Con from 2.91599e-007 to 2.91599e-007
Heightened Def Con from 2.91599e-007 to 2.91601e-007
Heightened Def Con from 2.91601e-007 to 2.92726e-007
Heightened Def Con from 2.92726e-007 to 2.92728e-007
Heightened Def Con from 2.92728e-007 to 2.92729e-007
Heightened Def Con from 2.92729e-007 to 2.92856e-007
Heightened Def Con from 2.92856e-007 to 2.92856e-007
Heightened Def Con from 2.92856e-007 to 2.92858e-007
Heightened Def Con from 2.92858e-007 to 2.9286e-007
Heightened Def Con from 2.9286e-007 to 2.92861e-007
Heightened Def Con from 2.92861e-007 to 2.92862e-007
Heightened Def Con from 2.92862e-007 to 2.92862e-007
Heightened Def Con from 2.92862e-007 +to 2.92863e-007
Heightened Def Con from 2.92863e-007 to 2.92863e-007
Heightened Def Con from 2.92863e-007 to 2.92864e-007
Heightened Def Con from 2.92864e-007 to 2.92864e-007
Heightened Def Con from 2.92864e-007 to 2.92866e-007
Heightened Def Con from 2.92866e-007 to 2.92868e-007
Heightened Def Con from 2.92869e-007 to 2.92994e-007
Heightened Def Con from 2.92994e-007 to 2.92994e-007
Heightened Def Con from 2.92994e-007 to 2.9301e-007
Heightened Def Con from 2.9301e-007 to 2.9301e-007
Heightened Def Con from 2.9301e-007 to 2.9301e-007
Heightened Def Con from 2.9301e-007 to 2.94026e-007
Heightened Def Con from 2.94026e-007 to 2.94026e-007
Heightened Def Con from 2.94026e-007 to 2.95151e-007
Heightened Def Con from 2.95151e-007 to 2.95151e-007
Heightened Def Con from 2.95151e-007 to 2.95153e-007
Heightened Def Con from 2.95153e-007 to 2.95153e-007
Heightened Def Con from 2.95153e-007 to 2.95155e-007
Heightened Def Con from 2.95156e-007 to 2.96156e-007
Heightened Def Con from 2.96156e-007 to 2.96156e-007
Heightened Def Con from 2.96156e-007 to 2.96156e-007
Heightened Def Con from 2.96156e-007 to 2.96157e-007
Heightened Def Con from 2.96157e-007 to 2.96157e-007
Heightened Def Con from 2.96157e-007 to 2.96157e-007
Heightened Def Con from 2.96157e-007 to 2.96157e-007
Heightened Def Con from 2.96157e-007 to 2.96177e-007
Heightened Def Con from 2.96177e-007 to 2.96177e-007
Heightened Def Con from 2.96177e-007 to 2.96179e-007
Heightened Def Con from 2.96179e-007 to 2.96181e-007
Heightened Def Con from 2.96182e-007 +to 2.96186e-007
Heightened Def Con from 2.96186e-007 to 2.96186e-007
Heightened Def Con from 2.96186e-007 to 2.96188e-007
Heightened Def Con from 2.96188e-007 to 2.96188e-007
Heightened Def Con from 2.96189e-007 to 2.97189e-007
Heightened Def Con from 2.97189e-007 to 2.9719e-007
Heightened Def Con from 2.9719e-007 to 2.9719e-007
Heightened Def Con from 2.9719e-007 to 2.9719e-007
Heightened Def Con from 2.97191e-007 to 2.97193e-007
Heightened Def Con from 2.97193e-007 to 2.97193e-007
Heightened Def Con from 2.97193e-007 to 2.97209e-007
Heightened Def Con from 2.97209e-007 to 2.97209e-007
Heightened Def Con from 2.97209e-007 to 2.97211e-007
Heightened Def Con from 2.97212e-007 to 2.97212e-007
Heightened Def Con from 2.97212e-007 to 2.98212e-007
Heightened Def Con from 2.98212e-007 +to 2.98212e-007
Heightened Def Con from 2.98212e-007 to 2.98214e-007
Heightened Def Con from 2.98215e-007 to 2.98215e-007
Heightened Def Con from 2.98215e-007 to 2.98215e-007
Heightened Def Con from 2.98215e-007 to 2.98215e-007
Heightened Def Con from 2.98215e-007 to 2.98465e-007
Heightened Def Con from 2.98465e-007 to 2.9859e-007
Heightened Def Con from 2.9859e-007 to 2.98715e-007
Heightened Def Con from 2.98715e-007 to 2.98715e-007
Heightened Def Con from 2.98715e-007 to 2.98716e-007
Heightened Def Con from 2.98716e-007 to 2.98716e-007
Heightened Def Con from 2.98716e-007 to 2.98716e-007
Heightened Def Con from 2.98717e-007 to 2.98717e-007
Heightened Def Con from 2.98717e-007 to 2.98717e-007
Heightened Def Con from 2.98717e-007 to 2.98717e-007
Heightened Def Con from 2.98717e-007 to 2.98717e-007
Heightened Def Con from 2.98717e-007 to 2.98717e-007
Heightened Def Con from 2.98718e-007 to 2.9872e-007
Heightened Def Con from 2.9872e-007 to 2.98722e-007
Heightened Def Con from 2.98722e-007 to 2.99722e-007
Heightened Def Con from 2.99722e-007 to 2.99722e-007
Heightened Def Con from 2.99722e-007 to 2.99722e-007
Heightened Def Con from 2.99722e-007 to 2.99723e-007
Heightened Def Con from 2.99723e-007 to 2.99723e-007
Heightened Def Con from 2.99723e-007 to 2.99725e-007
Heightened Def Con from 2.99726e-007 to 2.99741e-007
Heightened Def Con from 2.99741e-007 to 2.99743e-007
Heightened Def Con from 2.99744e-007 to 2.99744e-007
Heightened Def Con from 2.99744e-007 to 2.99744e-007
Heightened Def Con from 2.99744e-007 to 2.99748e-007
Heightened Def Con from 2.99748e-007 to 2.99748e-007
Heightened Def Con from 2.99748e-007 to 2.99748e-007
Heightened Def Con from 2.99748e-007 to 2.9975e-007
Heightened Def Con from 2.99751e-007 to 2.99751e-007
Heightened Def Con from 2.99751e-007 to 2.99752e-007
Heightened Def Con from 2.99752e-007 to 2.99752e-007
Heightened Def Con from 2.99752e-007 to 2.99754e-007
Heightened Def Con from 2.99754e-007 to 2.99879e-007
Heightened Def Con from 2.99879e-007 to 2.99879e-007
[...]
Heightened Def Con from 1.09426e-006 to 1.09426e-006
Heightened Def Con from 1.09426e-006 to 1.09426e-006
Heightened Def Con from 1.09426e-006 to 1.09426e-006
Heightened Def Con from 1.09426e-006 to 1.09426e-006
Heightened Def Con from 1.09426e-006 to 1.09426e-006
Heightened Def Con from 1.09426e-006 to 1.09426e-006
Heightened Def Con from 1.09426e-006 to 1.09426e-006
Heightened Def Con from 1.09426e-006 to 1.09427e-006
Heightened Def Con from 1.09427e-006 to 1.09427e-006
Heightened Def Con from 1.09427e-006 to 1.09539e-006
Heightened Def Con from 1.09539e-006 to 1.09664e-006
Heightened Def Con from 1.09664e-006 to 1.09689e-006
Heightened Def Con from 1.09689e-006 to 1.09689e-006
Heightened Def Con from 1.09689e-006 to 1.09789e-006
Heightened Def Con from 1.0979e-006 to 1.0979e-006
Heightened Def Con from 1.0979e-006 to 1.0979e-006
Heightened Def Con from 1.0979e-006 to 1.09791e-006
Heightened Def Con from 1.09792e-006 to 1.09793e-006
Heightened Def Con from 1.09793e-006 to 1.09793e-006
Heightened Def Con from 1.09793e-006 to 1.09793e-006
Heightened Def Con from 1.09793e-006 to 1.09793e-006
Heightened Def Con from 1.09793e-006 to 1.09794e-006
Heightened Def Con from 1.09794e-006 to 1.09794e-006
Heightened Def Con from 1.09794e-006 to 1.09797e-006
Heightened Def Con from 1.09797e-006 to 1.09822e-006
Heightened Def Con from 1.09822e-006 to 1.09822e-006
Heightened Def Con from 1.09822e-006 to 1.09822e-006
Heightened Def Con from 1.09822e-006 to 1.09822e-006
Heightened Def Con from 1.09822e-006 to 1.09822e-006
Heightened Def Con from 1.09822e-006 to 1.09836e-006
Heightened Def Con from 1.09836e-006 to 1.09938e-006
Heightened Def Con from 1.09938e-006 to 1.0994e-006
Heightened Def Con from 1.0994e-006 to 1.0994e-006
Heightened Def Con from 1.0994e-006 to 1.10052e-006
Heightened Def Con from 1.10052e-006 +to 1.10053e-006
Heightened Def Con from 1.10053e-006 to 1.10153e-006
Heightened Def Con from 1.10153e-006 to 1.10153e-006
Heightened Def Con from 1.10153e-006 to 1.10253e-006
Heightened Def Con from 1.10253e-006 to 1.10265e-006
Heightened Def Con from 1.10265e-006 to 1.10265e-006
Heightened Def Con from 1.10265e-006 to 1.10265e-006
Heightened Def Con from 1.10265e-006 to 1.10265e-006
Heightened Def Con from 1.10265e-006 to 1.10265e-006
Heightened Def Con from 1.10265e-006 to 1.10265e-006
Heightened Def Con from 1.10265e-006 to 1.10265e-006
Heightened Def Con from 1.10265e-006 to 1.10366e-006
Heightened Def Con from 1.10366e-006 to 1.10366e-006
Heightened Def Con from 1.10366e-006 to 1.10666e-006
Heightened Def Con from 1.10666e-006 to 1.10666e-006
Heightened Def Con from 1.10666e-006 to 1.10666e-006
Heightened Def Con from 1.10666e-006 to 1.10867e-006
Heightened Def Con from 1.10867e-006 to 1.10867e-006
Heightened Def Con from 1.10867e-006 to 1.10867e-006
Heightened Def Con from 1.10868e-006 to 1.10968e-006
Heightened Def Con from 1.10968e-006 to 1.11168e-006
Heightened Def Con from 1.11168e-006 to 1.1127e-006
Heightened Def Con from 1.1127e-006 to 1.1127e-006
Heightened Def Con from 1.1127e-006 to 1.1127e-006
Heightened Def Con from 1.1127e-006 to 1.11282e-006
Heightened Def Con from 1.11282e-006 to 1.11295e-006
Heightened Def Con from 1.11295e-006 to 1.11295e-006
Heightened Def Con from 1.11295e-006 to 1.11295e-006
Heightened Def Con from 1.11295e-006 to 1.11295e-006
Heightened Def Con from 1.11295e-006 to 1.11295e-006
Heightened Def Con from 1.11295e-006 to 1.11295e-006
Heightened Def Con from 1.11295e-006 to 1.11295e-006
Heightened Def Con from 1.11295e-006 to 1.11295e-006
Heightened Def Con from 1.11295e-006 to 1.11297e-006
Heightened Def Con from 1.11297e-006 to 1.11311e-006
Heightened Def Con from 1.11311e-006 to 1.11337e-006
Heightened Def Con from 1.11337e-006 to 1.11437e-006
Heightened Def Con from 1.11437e-006 to 1.11475e-006
Heightened Def Con from 1.11475e-006 to 1.11476e-006
Heightened Def Con from 1.11476e-006 to 1.11476e-006
Heightened Def Con from 1.11476e-006 to 1.11478e-006
Heightened Def Con from 1.11478e-006 to 1.11591e-006
Heightened Def Con from 1.11591e-006 to 1.11617e-006
Heightened Def Con from 1.11617e-006 to 1.11617e-006
Heightened Def Con from 1.11617e-006 to 1.11617e-006
Heightened Def Con from 1.11618e-006 to 1.11718e-006
Heightened Def Con from 1.11718e-006 to 1.11721e-006
Heightened Def Con from 1.11721e-006 to 1.11734e-006
Heightened Def Con from 1.11734e-006 to 1.11934e-006
Heightened Def Con from 1.11934e-006 to 1.11935e-006
Heightened Def Con from 1.11935e-006 to 1.11935e-006
Heightened Def Con from 1.11935e-006 to 1.11948e-006
Heightened Def Con from 1.11948e-006 to 1.1216e-006
Heightened Def Con from 1.1216e-006 to 1.12173e-006
Heightened Def Con from 1.12173e-006 to 1.12187e-006
Heightened Def Con from 1.12187e-006 to 1.12201e-006
Heightened Def Con from 1.12201e-006 to 1.12201e-006
Heightened Def Con from 1.12201e-006 to 1.12214e-006
Heightened Def Con from 1.12214e-006 to 1.12239e-006
Heightened Def Con from 1.12239e-006 to 1.12239e-006
Heightened Def Con from 1.12239e-006 to 1.12339e-006
Heightened Def Con from 1.12339e-006 to 1.12376e-006
Heightened Def Con from 1.12376e-006 to 1.12376e-006
Heightened Def Con from 1.12377e-006 to 1.12377e-006
Heightened Def Con from 1.12377e-006 to 1.12489e-006
Heightened Def Con from 1.12489e-006 to 1.12502e-006
Heightened Def Con from 1.12502e-006 to 1.12602e-006
Heightened Def Con from 1.12602e-006 to 1.12603e-006
Heightened Def Con from 1.12603e-006 to 1.12608e-006
Heightened Def Con from 1.12608e-006 to 1.12608e-006
Heightened Def Con from 1.12608e-006 to 1.12608e-006
Heightened Def Con from 1.12608e-006 to 1.12608e-006
Heightened Def Con from 1.12608e-006 to 1.12608e-006
Heightened Def Con from 1.12608e-006 to 1.12608e-006
Heightened Def Con from 1.12608e-006 to 1.12608e-006
Heightened Def Con from 1.12608e-006 to 1.12608e-006
Heightened Def Con from 1.12608e-006 to 1.12608e-006
Heightened Def Con from 1.12608e-006 to 1.12608e-006
Heightened Def Con from 1.12608e-006 to 1.12608e-006
Heightened Def Con from 1.12608e-006 to 1.12608e-006
Heightened Def Con from 1.12608e-006 to 1.12608e-006
Heightened Def Con from 1.12608e-006 to 1.12608e-006
Heightened Def Con from 1.12608e-006 to 1.12608e-006
Heightened Def Con from 1.12608e-006 to 1.12612e-006
Heightened Def Con from 1.12612e-006 to 1.12613e-006
Heightened Def Con from 1.12613e-006 to 1.12638e-006
Heightened Def Con from 1.12638e-006 to 1.12638e-006
Heightened Def Con from 1.12638e-006 to 1.12638e-006
Heightened Def Con from 1.12638e-006 to 1.1264e-006
Heightened Def Con from 1.1264e-006 to 1.1264e-006
Heightened Def Con from 1.1264e-006 to 1.1264e-006
Heightened Def Con from 1.1264e-006 to 1.1264e-006
Heightened Def Con from 1.1264e-006 to 1.1264e-006
Heightened Def Con from 1.1264e-006 to 1.12777e-006
Heightened Def Con from 1.12777e-006 to 1.1279e-006
Heightened Def Con from 1.1279e-006 to 1.12802e-006
Heightened Def Con from 1.12802e-006 to 1.12802e-006
Heightened Def Con from 1.12802e-006 to 1.12802e-006
Heightened Def Con from 1.12802e-006 to 1.12802e-006
Heightened Def Con from 1.12802e-006 to 1.12802e-006
Heightened Def Con from 1.12802e-006 to 1.12802e-006
Heightened Def Con from 1.12802e-006 to 1.12803e-006
Heightened Def Con from 1.12803e-006 to 1.12803e-006
Heightened Def Con from 1.12803e-006 to 1.12803e-006
Heightened Def Con from 1.12803e-006 to 1.12803e-006
Heightened Def Con from 1.12803e-006 to 1.12803e-006
Heightened Def Con from 1.12803e-006 to 1.12803e-006
Heightened Def Con from 1.12803e-006 to 1.12803e-006
Heightened Def Con from 1.12803e-006 to 1.12817e-006
Heightened Def Con from 1.12817e-006 to 1.12817e-006
Heightened Def Con from 1.12817e-006 to 1.12818e-006
Heightened Def Con from 1.12818e-006 to 1.12818e-006
Heightened Def Con from 1.12818e-006 to 1.12818e-006
Heightened Def Con from 1.12818e-006 to 1.12818e-006
Heightened Def Con from 1.12818e-006 to 1.12918e-006
Heightened Def Con from 1.12918e-006 to 1.12918e-006
Heightened Def Con from 1.12918e-006 to 1.12918e-006
Heightened Def Con from 1.12918e-006 to 1.12918e-006
Heightened Def Con from 1.12918e-006 to 1.12918e-006
Heightened Def Con from 1.12918e-006 to 1.12918e-006
Heightened Def Con from 1.12918e-006 to 1.1292e-006
Heightened Def Con from 1.1292e-006 to 1.1292e-006
Heightened Def Con from 1.1292e-006 to 1.1292e-006
Heightened Def Con from 1.1292e-006 to 1.1292e-006
Heightened Def Con from 1.1292e-006 to 1.12921e-006
Heightened Def Con from 1.12921e-006 to 1.12921e-006
Heightened Def Con from 1.12921e-006 to 1.12934e-006
Heightened Def Con from 1.12934e-006 to 1.12946e-006
Heightened Def Con from 1.12946e-006 to 1.12946e-006
Heightened Def Con from 1.12946e-006 to 1.12946e-006
Heightened Def Con from 1.12947e-006 to 1.12947e-006
Heightened Def Con from 1.12947e-006 to 1.12947e-006
Heightened Def Con from 1.12947e-006 to 1.12947e-006
Heightened Def Con from 1.12947e-006 to 1.12947e-006
Heightened Def Con from 1.12947e-006 to 1.12959e-006
Heightened Def Con from 1.12959e-006 to 1.12959e-006
Heightened Def Con from 1.12959e-006 to 1.12961e-006
Heightened Def Con from 1.12961e-006 to 1.12961e-006
Heightened Def Con from 1.12961e-006 to 1.12986e-006
Heightened Def Con from 1.12986e-006 to 1.12986e-006
Heightened Def Con from 1.12986e-006 to 1.12986e-006
Heightened Def Con from 1.12986e-006 to 1.12988e-006
Heightened Def Con from 1.12988e-006 to 1.12988e-006
Heightened Def Con from 1.12988e-006 to 1.12988e-006
Heightened Def Con from 1.12988e-006 to 1.13002e-006
Heightened Def Con from 1.13002e-006 to 1.13003e-006
Heightened Def Con from 1.13003e-006 to 1.13003e-006
Heightened Def Con from 1.13003e-006 to 1.13016e-006
Heightened Def Con from 1.13016e-006 to 1.13016e-006
Heightened Def Con from 1.13016e-006 to 1.13016e-006
Heightened Def Con from 1.13016e-006 to 1.13016e-006
Heightened Def Con from 1.13016e-006 to 1.13016e-006
Heightened Def Con from 1.13016e-006 +to 1.13018e-006
Heightened Def Con from 1.13018e-006 to 1.13018e-006
Heightened Def Con from 1.13018e-006 to 1.13018e-006
Heightened Def Con from 1.13018e-006 to 1.13018e-006
Heightened Def Con from 1.13018e-006 to 1.13018e-006
Heightened Def Con from 1.13018e-006 to 1.13018e-006
Heightened Def Con from 1.13018e-006 to 1.13018e-006
Heightened Def Con from 1.13018e-006 to 1.13018e-006
Heightened Def Con from 1.13018e-006 to 1.13018e-006
Heightened Def Con from 1.13018e-006 to 1.13018e-006
Heightened Def Con from 1.13018e-006 to 1.13018e-006
Heightened Def Con from 1.13018e-006 to 1.13043e-006
Heightened Def Con from 1.13043e-006 to 1.13043e-006
Heightened Def Con from 1.13043e-006 to 1.13043e-006
Heightened Def Con from 1.13043e-006 to 1.13044e-006
Heightened Def Con from 1.13044e-006 to 1.13044e-006
Heightened Def Con from 1.13044e-006 to 1.13044e-006
Heightened Def Con from 1.13044e-006 to 1.13047e-006
Heightened Def Con from 1.13047e-006 to 1.13047e-006
Heightened Def Con from 1.13047e-006 to 1.13047e-006
Heightened Def Con from 1.13047e-006 to 1.1316e-006
Heightened Def Con from 1.1316e-006 to 1.1316e-006
Heightened Def Con from 1.1316e-006 to 1.1316e-006
Heightened Def Con from 1.1316e-006 to 1.1316e-006
Heightened Def Con from 1.1316e-006 to 1.1316e-006
Heightened Def Con from 1.1316e-006 to 1.1316e-006
Heightened Def Con from 1.1316e-006 to 1.13261e-006
Heightened Def Con from 1.13263e-006 to 1.13263e-006
Heightened Def Con from 1.13263e-006 to 1.13263e-006
Heightened Def Con from 1.13263e-006 to 1.13276e-006
Heightened Def Con from 1.13276e-006 to 1.13276e-006
Heightened Def Con from 1.13276e-006 to 1.13276e-006
Heightened Def Con from 1.13276e-006 to 1.13276e-006
Heightened Def Con from 1.13276e-006 to 1.13276e-006
Heightened Def Con from 1.13276e-006 to 1.13276e-006
Heightened Def Con from 1.13276e-006 to 1.13276e-006
Heightened Def Con from 1.13276e-006 to 1.13276e-006
Heightened Def Con from 1.13276e-006 to 1.13276e-006
Heightened Def Con from 1.13276e-006 to 1.13276e-006
Heightened Def Con from 1.13277e-006 to 1.13289e-006
Heightened Def Con from 1.13289e-006 +to 1.13289e-006
Heightened Def Con from 1.13289e-006 to 1.13289e-006
Heightened Def Con from 1.13289e-006 to 1.13289e-006
Heightened Def Con from 1.13289e-006 to 1.13289e-006
Heightened Def Con from 1.13289e-006 to 1.13289e-006
Heightened Def Con from 1.13289e-006 to 1.13289e-006
Heightened Def Con from 1.13289e-006 to 1.13302e-006
Heightened Def Con from 1.13302e-006 to 1.13302e-006
Heightened Def Con from 1.13302e-006 to 1.13302e-006
Heightened Def Con from 1.13302e-006 to 1.13302e-006
Heightened Def Con from 1.13302e-006 to 1.13304e-006
Heightened Def Con from 1.13304e-006 to 1.13304e-006
Heightened Def Con from 1.13304e-006 to 1.13304e-006
Heightened Def Con from 1.13304e-006 to 1.13304e-006
Heightened Def Con from 1.13304e-006 to 1.13317e-006
Heightened Def Con from 1.13317e-006 to 1.13317e-006
Heightened Def Con from 1.13317e-006 to 1.13317e-006
Heightened Def Con from 1.13317e-006 to 1.13317e-006
Heightened Def Con from 1.13317e-006 to 1.13317e-006
Heightened Def Con from 1.13317e-006 to 1.13317e-006
Heightened Def Con from 1.13317e-006 to 1.13317e-006
Heightened Def Con from 1.13317e-006 to 1.13317e-006
Heightened Def Con from 1.13317e-006 to 1.13317e-006
Heightened Def Con from 1.13317e-006 to 1.1333e-006
Heightened Def Con from 1.1333e-006 to 1.1333e-006
Heightened Def Con from 1.1333e-006 to 1.1333e-006
Heightened Def Con from 1.1333e-006 to 1.1333e-006
Heightened Def Con from 1.1333e-006 to 1.1333e-006
Heightened Def Con from 1.1333e-006 to 1.13332e-006
Heightened Def Con from 1.13332e-006 to 1.13344e-006
Heightened Def Con from 1.13344e-006 to 1.13344e-006
Heightened Def Con from 1.13344e-006 to 1.13344e-006
Heightened Def Con from 1.13344e-006 to 1.13344e-006
Heightened Def Con from 1.13344e-006 to 1.13344e-006
Heightened Def Con from 1.13344e-006 to 1.13344e-006
Heightened Def Con from 1.13344e-006 to 1.13344e-006
Heightened Def Con from 1.13344e-006 to 1.13344e-006
Heightened Def Con from 1.13344e-006 to 1.13344e-006
Heightened Def Con from 1.13344e-006 to 1.13344e-006
Heightened Def Con from 1.13344e-006 to 1.13444e-006
Heightened Def Con from 1.13444e-006 to 1.13444e-006
Heightened Def Con from 1.13444e-006 to 1.13444e-006
Heightened Def Con from 1.13444e-006 to 1.13445e-006
Heightened Def Con from 1.13445e-006 to 1.13445e-006
Heightened Def Con from 1.13445e-006 to 1.13445e-006
Heightened Def Con from 1.13445e-006 to 1.13445e-006
Heightened Def Con from 1.13445e-006 to 1.13445e-006
Heightened Def Con from 1.13445e-006 to 1.13445e-006
Heightened Def Con from 1.13445e-006 to 1.13445e-006
Heightened Def Con from 1.13445e-006 to 1.13458e-006
Heightened Def Con from 1.13458e-006 to 1.13458e-006
Heightened Def Con from 1.13458e-006 to 1.13458e-006
Heightened Def Con from 1.13458e-006 to 1.13458e-006
Heightened Def Con from 1.13458e-006 to 1.13458e-006
Heightened Def Con from 1.13458e-006 to 1.13458e-006
Heightened Def Con from 1.13458e-006 to 1.13458e-006
Heightened Def Con from 1.13458e-006 to 1.13458e-006
Heightened Def Con from 1.13458e-006 to 1.13458e-006
Heightened Def Con from 1.13458e-006 to 1.1346e-006
Heightened Def Con from 1.1346e-006 to 1.1346e-006
Heightened Def Con from 1.1346e-006 to 1.1346e-006
Heightened Def Con from 1.1346e-006 to 1.1346e-006
Heightened Def Con from 1.1346e-006 to 1.1346e-006
Heightened Def Con from 1.1346e-006 to 1.13474e-006
Heightened Def Con from 1.13474e-006 to 1.13474e-006
Heightened Def Con from 1.13474e-006 to 1.13474e-006
Heightened Def Con from 1.13474e-006 to 1.13475e-006
Heightened Def Con from 1.13475e-006 to 1.13475e-006
Heightened Def Con from 1.13475e-006 to 1.13475e-006
Heightened Def Con from 1.13475e-006 to 1.13475e-006
Heightened Def Con from 1.13475e-006 to 1.13575e-006
Heightened Def Con from 1.13575e-006 to 1.13575e-006
Heightened Def Con from 1.13575e-006 to 1.13575e-006
Heightened Def Con from 1.13575e-006 to 1.13575e-006
Heightened Def Con from 1.13575e-006 to 1.13588e-006
Heightened Def Con from 1.13588e-006 to 1.13589e-006
Heightened Def Con from 1.13589e-006 to 1.13589e-006
Heightened Def Con from 1.13589e-006 to 1.13589e-006
Heightened Def Con from 1.13589e-006 to 1.13589e-006
Heightened Def Con from 1.13589e-006 to 1.13589e-006
Heightened Def Con from 1.13589e-006 to 1.13589e-006
Heightened Def Con from 1.13589e-006 to 1.13589e-006
Heightened Def Con from 1.13589e-006 to 1.13589e-006
Heightened Def Con from 1.13589e-006 to 1.13589e-006
Heightened Def Con from 1.13589e-006 to 1.13589e-006
Heightened Def Con from 1.13589e-006 to 1.1359e-006
Heightened Def Con from 1.1359e-006 to 1.1359e-006
Heightened Def Con from 1.1359e-006 to 1.1359e-006
Heightened Def Con from 1.1359e-006 to 1.1359e-006
Heightened Def Con from 1.1359e-006 to 1.13602e-006
Heightened Def Con from 1.13602e-006 to 1.13602e-006
Heightened Def Con from 1.13602e-006 to 1.13602e-006
Heightened Def Con from 1.13602e-006 to 1.13602e-006
Heightened Def Con from 1.13602e-006 to 1.13603e-006
Heightened Def Con from 1.13603e-006 to 1.13603e-006
Heightened Def Con from 1.13603e-006 to 1.13603e-006
Heightened Def Con from 1.13603e-006 to 1.13603e-006
Heightened Def Con from 1.13603e-006 to 1.13603e-006
Heightened Def Con from 1.13603e-006 to 1.13603e-006
Heightened Def Con from 1.13603e-006 to 1.13603e-006
Heightened Def Con from 1.13603e-006 to 1.13703e-006
Heightened Def Con from 1.13703e-006 to 1.13803e-006
Heightened Def Con from 1.13803e-006 +to 1.13803e-006
Heightened Def Con from 1.13803e-006 to 1.13803e-006
Heightened Def Con from 1.13803e-006 to 1.13803e-006
Heightened Def Con from 1.13803e-006 to 1.13805e-006
Heightened Def Con from 1.13805e-006 to 1.13805e-006
Heightened Def Con from 1.13805e-006 to 1.13805e-006
Heightened Def Con from 1.13805e-006 to 1.13805e-006
Heightened Def Con from 1.13805e-006 to 1.13818e-006
Heightened Def Con from 1.13818e-006 to 1.13818e-006
Heightened Def Con from 1.13818e-006 to 1.13818e-006
Heightened Def Con from 1.13818e-006 to 1.13818e-006
Heightened Def Con from 1.13818e-006 to 1.13818e-006
Heightened Def Con from 1.13818e-006 to 1.13818e-006
Heightened Def Con from 1.13818e-006 to 1.13818e-006
Heightened Def Con from 1.13818e-006 to 1.13818e-006
Heightened Def Con from 1.13818e-006 to 1.13818e-006
Heightened Def Con from 1.13818e-006 to 1.13818e-006
Heightened Def Con from 1.13818e-006 to 1.13918e-006
Heightened Def Con from 1.13918e-006 to 1.13918e-006
Heightened Def Con from 1.13918e-006 to 1.13918e-006
Heightened Def Con from 1.13918e-006 to 1.13918e-006
Heightened Def Con from 1.13918e-006 to 1.13918e-006
Heightened Def Con from 1.13918e-006 to 1.13943e-006
Heightened Def Con from 1.13943e-006 to 1.13956e-006
Heightened Def Con from 1.13956e-006 to 1.13956e-006
Heightened Def Con from 1.13956e-006 to 1.13956e-006
Heightened Def Con from 1.13956e-006 to 1.13956e-006
Heightened Def Con from 1.13957e-006 to 1.13958e-006
Heightened Def Con from 1.13958e-006 to 1.13958e-006
Heightened Def Con from 1.13958e-006 to 1.13958e-006
Heightened Def Con from 1.13958e-006 to 1.13958e-006
Heightened Def Con from 1.13958e-006 to 1.13971e-006
Heightened Def Con from 1.13971e-006 to 1.14084e-006
Heightened Def Con from 1.14084e-006 to 1.14084e-006
Heightened Def Con from 1.14084e-006 to 1.14184e-006
Heightened Def Con from 1.14184e-006 to 1.14188e-006
Heightened Def Con from 1.14188e-006 to 1.14888e-006
Heightened Def Con from 1.18796e-006 to 1.19396e-006
Heightened Def Con from 1.20919e-006 to 1.21719e-006
Heightened Def Con from 1.23365e-006 to 1.24165e-006
Heightened Def Con from 1.27138e-006 to 1.29338e-006
Heightened Def Con from 1.30447e-006 to 1.32347e-006
Heightened Def Con from 1.3435e-006 to 1.3505e-006
Heightened Def Con from 1.37304e-006 to 1.37304e-006

Date: Sat May 20 14:46:42 2023
Total elapsed time: 91.591 seconds.

tnom = 27
temp = 27
method = modified trap
totiter = 14851275
traniter = 14848542
tranpoints = 4656462
accept = 2881902
rejected = 1783244
matrix size = 36
fillins = 42
solver = Normal
Matrix Compiler1: off  1.3/0.5/[0.4]
Matrix Compiler2: 3.45 KB object code size  0.5/0.6/[0.4]

