Circuit: * C:\users\leonardo\Desktop\FSAE\inverter-simulation\main-attempt\inverter-spice-nmos.asc

WARNING: Node N014 is floating.

Instance "m1": Length shorter than recommended for a level 1 MOSFET.
Direct Newton iteration for .op point succeeded.
Heightened Def Con from 4.73963e-008 to 6.03963e-008
Heightened Def Con from 7.39317e-008 to 9.39317e-008
Heightened Def Con from 1.21067e-007 to 1.46067e-007
Heightened Def Con from 1.96307e-007 to 2.02307e-007
Heightened Def Con from 2.03838e-007 to 2.03838e-007

Date: Wed May 24 14:44:08 2023
Total elapsed time: 24.262 seconds.

tnom = 27
temp = 27
method = modified trap
totiter = 6447736
traniter = 6447711
tranpoints = 2928075
accept = 1820077
rejected = 1108003
matrix size = 20
fillins = 19
solver = Normal
Matrix Compiler1: 1.72 KB object code size  0.7/0.5/[0.3]
Matrix Compiler2: off  [0.4]/0.6/0.4

