Circuit: * C:\users\leonardo\Desktop\FSAE\inverter-simulation\main-attempt\inverter-spice-nmos.asc

Limiting rise time of source v2 to 6.25e-009
Limiting fall time of source v2 to 6.25e-009
WARNING: Node N014 is floating.

Instance "m1": Length shorter than recommended for a level 1 MOSFET.
Direct Newton iteration for .op point succeeded.
Heightened Def Con from 3.40914e-008 to 3.80914e-008
Heightened Def Con from 8.85976e-008 to 9.85976e-008
Heightened Def Con from 1.00651e-007 to 1.07651e-007
Heightened Def Con from 1.26369e-007 to 1.3135e-007
Heightened Def Con from 1.56664e-007 to 1.61664e-007
Heightened Def Con from 1.66376e-007 to 1.98376e-007
Heightened Def Con from 2.40478e-007 to 2.46478e-007
Heightened Def Con from 2.65891e-007 to 2.79891e-007
Heightened Def Con from 3.71544e-007 to 3.96544e-007
Heightened Def Con from 4.6905e-007 to 4.7405e-007
Heightened Def Con from 5.27387e-007 to 5.56387e-007
Heightened Def Con from 5.8266e-007 to 5.9166e-007
Heightened Def Con from 6.0467e-007 to 6.3967e-007
Heightened Def Con from 6.48988e-007 to 6.64988e-007
Heightened Def Con from 7.23399e-007 to 7.30399e-007
Heightened Def Con from 7.47685e-007 to 7.75685e-007
Heightened Def Con from 7.76236e-007 to 8.09236e-007
Heightened Def Con from 8.44718e-007 to 8.50718e-007
Heightened Def Con from 8.56292e-007 to 8.96292e-007
Heightened Def Con from 8.96665e-007 to 9.27665e-007
Heightened Def Con from 9.29042e-007 to 9.29042e-007

Date: Wed May 24 14:20:07 2023
Total elapsed time: 99.925 seconds.

tnom = 27
temp = 27
method = modified trap
totiter = 27587755
traniter = 27587730
tranpoints = 12529791
accept = 7798409
rejected = 4731403
matrix size = 20
fillins = 19
solver = Normal
Matrix Compiler1: 1.72 KB object code size  0.6/0.3/[0.2]
Matrix Compiler2: off  [0.2]/0.3/0.3

