Circuit: * C:\users\leonardo\Desktop\FSAE\inverter-simulation\main-attempt\inverter-spice-nmos.asc

WARNING: Node N014 is floating.

Instance "m1": Length shorter than recommended for a level 1 MOSFET.
Direct Newton iteration for .op point succeeded.
Heightened Def Con from 4.73963e-008 to 6.03963e-008
Heightened Def Con from 7.39317e-008 to 9.39317e-008
Heightened Def Con from 1.21067e-007 to 1.46067e-007
Heightened Def Con from 1.96307e-007 to 2.02307e-007
Heightened Def Con from 2.1765e-007 to 2.4765e-007
Heightened Def Con from 2.56098e-007 to 4.87098e-007
Heightened Def Con from 5.29932e-007 to 6.11932e-007
Heightened Def Con from 6.2866e-007 to 6.4166e-007
Heightened Def Con from 6.7587e-007 to 7.1487e-007
