Circuit: * C:\users\leonardo\Desktop\FSAE\inverter-simulation\main-attempt\inverter-spice.asc

Limiting rise time of source v2 to 6.25e-006
Limiting fall time of source v2 to 6.25e-006
Direct Newton iteration for .op point succeeded.
Changing Tseed to 1e-010
Changing Tseed to 1e-012
Changing Tseed to 1e-009
Changing Tseed to 1e-013
Changing Tseed to 1e-008
Changing Tseed to 1e-014
Changing Tseed to 1e-007
Heightened Def Con from 1e-007 to 1.00002e-007
Heightened Def Con from 1.00002e-007 to 1.00002e-007
Heightened Def Con from 1.00002e-007 to 1.00002e-007
Heightened Def Con from 1.00002e-007 to 1.00002e-007
Heightened Def Con from 1.00002e-007 to 1.00002e-007
Heightened Def Con from 1.00002e-007 to 1.00002e-007
Heightened Def Con from 1.00002e-007 to 1.00002e-007
Heightened Def Con from 1.00002e-007 +to 1.00002e-007
Heightened Def Con from 1.00002e-007 to 1.00002e-007
Heightened Def Con from 1.00002e-007 to 1.00003e-007
Heightened Def Con from 1.00003e-007 to 1.00003e-007
Heightened Def Con from 1.00003e-007 to 1.00003e-007
Heightened Def Con from 1.00003e-007 to 1.00003e-007
Heightened Def Con from 1.00003e-007 +to 1.00003e-007
Heightened Def Con from 1.00003e-007 to 1.00005e-007
Heightened Def Con from 1.00005e-007 to 1.00005e-007
Heightened Def Con from 1.00005e-007 to 1.00005e-007
Heightened Def Con from 1.00005e-007 to 1.00005e-007
Heightened Def Con from 1.00005e-007 to 1.00006e-007
Heightened Def Con from 1.00006e-007 to 1.00008e-007
Heightened Def Con from 1.00008e-007 to 1.00008e-007
Heightened Def Con from 1.00008e-007 to 1.00008e-007
Heightened Def Con from 1.00008e-007 to 1.00008e-007
Heightened Def Con from 1.00008e-007 to 1.00008e-007
Heightened Def Con from 1.00008e-007 to 1.00008e-007
Heightened Def Con from 1.00008e-007 to 1.00008e-007
Heightened Def Con from 1.00008e-007 to 1.00008e-007
Heightened Def Con from 1.00008e-007 to 1.00009e-007
Heightened Def Con from 1.00009e-007 to 1.00011e-007
Heightened Def Con from 1.00011e-007 to 1.00011e-007
Heightened Def Con from 1.00011e-007 to 1.00011e-007
Heightened Def Con from 1.00011e-007 to 1.00011e-007
Heightened Def Con from 1.00011e-007 to 1.00012e-007
Heightened Def Con from 1.00012e-007 to 1.00012e-007
Heightened Def Con from 1.00012e-007 to 1.00012e-007
Heightened Def Con from 1.00012e-007 to 1.00012e-007
Heightened Def Con from 1.00012e-007 to 1.00012e-007
Heightened Def Con from 1.00012e-007 to 1.00012e-007
Heightened Def Con from 1.00012e-007 to 1.00012e-007
Heightened Def Con from 1.00012e-007 to 1.00012e-007
Heightened Def Con from 1.00012e-007 to 1.00012e-007
Heightened Def Con from 1.00012e-007 to 1.00012e-007
Heightened Def Con from 1.00012e-007 to 1.00012e-007
Heightened Def Con from 1.00013e-007 to 1.00013e-007
Heightened Def Con from 1.00013e-007 to 1.00013e-007
Heightened Def Con from 1.00013e-007 to 1.00013e-007
Heightened Def Con from 1.00013e-007 to 1.00013e-007
Heightened Def Con from 1.00013e-007 to 1.00013e-007
Heightened Def Con from 1.00013e-007 to 1.00013e-007
Heightened Def Con from 1.00013e-007 to 1.00013e-007
Heightened Def Con from 1.00013e-007 to 1.00013e-007
Heightened Def Con from 1.00013e-007 to 1.00013e-007
Heightened Def Con from 1.00013e-007 to 1.00014e-007
Heightened Def Con from 1.00014e-007 to 1.00014e-007
Heightened Def Con from 1.00014e-007 to 1.00014e-007
Heightened Def Con from 1.00014e-007 to 1.00014e-007
Heightened Def Con from 1.00014e-007 to 1.00014e-007
Heightened Def Con from 1.00014e-007 to 1.00015e-007
Heightened Def Con from 1.00015e-007 to 1.00015e-007
Heightened Def Con from 1.00015e-007 to 1.00015e-007
Heightened Def Con from 1.00015e-007 to 1.00015e-007
Heightened Def Con from 1.00015e-007 to 1.00015e-007
Heightened Def Con from 1.00015e-007 to 1.00015e-007
Heightened Def Con from 1.00015e-007 to 1.00015e-007
Heightened Def Con from 1.00015e-007 to 1.00016e-007
Heightened Def Con from 1.00016e-007 to 1.00016e-007
Heightened Def Con from 1.00016e-007 to 1.00016e-007
Heightened Def Con from 1.00016e-007 to 1.00016e-007
Heightened Def Con from 1.00016e-007 to 1.00016e-007
Heightened Def Con from 1.00016e-007 to 1.00016e-007
Heightened Def Con from 1.00016e-007 to 1.00016e-007
Heightened Def Con from 1.00016e-007 to 1.00016e-007
Heightened Def Con from 1.00016e-007 to 1.00016e-007
Heightened Def Con from 1.00017e-007 to 1.00142e-007
Heightened Def Con from 1.00142e-007 to 1.00142e-007
Heightened Def Con from 1.00142e-007 +to 1.00142e-007
Heightened Def Con from 1.00142e-007 to 1.00142e-007
Heightened Def Con from 1.00142e-007 to 1.00142e-007
Heightened Def Con from 1.00142e-007 to 1.00142e-007
Heightened Def Con from 1.00142e-007 to 1.00142e-007
Heightened Def Con from 1.00142e-007 to 1.00142e-007
Heightened Def Con from 1.00142e-007 to 1.00142e-007
Heightened Def Con from 1.00142e-007 to 1.00142e-007
Heightened Def Con from 1.00142e-007 to 1.00142e-007
Heightened Def Con from 1.00142e-007 to 1.00142e-007
Heightened Def Con from 1.00142e-007 to 1.00142e-007
Heightened Def Con from 1.00142e-007 +to 1.00142e-007
Heightened Def Con from 1.00142e-007 to 1.00142e-007
Heightened Def Con from 1.00142e-007 to 1.00142e-007
Heightened Def Con from 1.00142e-007 to 1.00142e-007
Heightened Def Con from 1.00142e-007 +to 1.00142e-007
Heightened Def Con from 1.00142e-007 to 1.00142e-007
Heightened Def Con from 1.00142e-007 to 1.00142e-007
Heightened Def Con from 1.00142e-007 to 1.00142e-007
Heightened Def Con from 1.00143e-007 to 1.00143e-007
Heightened Def Con from 1.00143e-007 to 1.00143e-007
Heightened Def Con from 1.00143e-007 to 1.00143e-007
Heightened Def Con from 1.00143e-007 to 1.00143e-007
Heightened Def Con from 1.00143e-007 to 1.00143e-007
Heightened Def Con from 1.00143e-007 to 1.00143e-007
Heightened Def Con from 1.00143e-007 to 1.00159e-007
Heightened Def Con from 1.00159e-007 to 1.00159e-007
Heightened Def Con from 1.00159e-007 to 1.00159e-007
Heightened Def Con from 1.00159e-007 to 1.00159e-007
Heightened Def Con from 1.00159e-007 +to 1.00159e-007
Heightened Def Con from 1.00159e-007 to 1.00159e-007
Heightened Def Con from 1.00159e-007 to 1.00159e-007
Heightened Def Con from 1.00159e-007 to 1.00159e-007
Heightened Def Con from 1.00159e-007 to 1.00159e-007
Heightened Def Con from 1.00159e-007 to 1.00159e-007
Heightened Def Con from 1.00159e-007 +to 1.00159e-007
Heightened Def Con from 1.00159e-007 to 1.00161e-007
Heightened Def Con from 1.00161e-007 to 1.00161e-007
Heightened Def Con from 1.00161e-007 to 1.00161e-007
Heightened Def Con from 1.00161e-007 to 1.00161e-007
Heightened Def Con from 1.00161e-007 to 1.00161e-007
Heightened Def Con from 1.00161e-007 +to 1.00161e-007
Heightened Def Con from 1.00162e-007 to 1.00162e-007
Heightened Def Con from 1.00162e-007 to 1.00162e-007
Heightened Def Con from 1.00162e-007 to 1.00162e-007
Heightened Def Con from 1.00162e-007 to 1.00162e-007
Heightened Def Con from 1.00162e-007 to 1.00162e-007
Heightened Def Con from 1.00162e-007 +to 1.00162e-007
Heightened Def Con from 1.00162e-007 to 1.00162e-007
Heightened Def Con from 1.00162e-007 to 1.00162e-007
Heightened Def Con from 1.00162e-007 to 1.00164e-007
Heightened Def Con from 1.00164e-007 to 1.00164e-007
Heightened Def Con from 1.00164e-007 to 1.00164e-007
Heightened Def Con from 1.00164e-007 to 1.00164e-007
Heightened Def Con from 1.00164e-007 +to 1.0018e-007
Heightened Def Con from 1.0018e-007 to 1.0018e-007
Heightened Def Con from 1.00181e-007 to 1.00181e-007
Heightened Def Con from 1.00181e-007 +to 1.00181e-007
Heightened Def Con from 1.00181e-007 to 1.00181e-007
Heightened Def Con from 1.00181e-007 to 1.00181e-007
Heightened Def Con from 1.00181e-007 to 1.00181e-007
Heightened Def Con from 1.00181e-007 to 1.00181e-007
Heightened Def Con from 1.00181e-007 to 1.00181e-007
Heightened Def Con from 1.00181e-007 to 1.00182e-007
Heightened Def Con from 1.00182e-007 to 1.00182e-007
Heightened Def Con from 1.00182e-007 to 1.00182e-007
Heightened Def Con from 1.00182e-007 to 1.00182e-007
Heightened Def Con from 1.00182e-007 to 1.00182e-007
Heightened Def Con from 1.00182e-007 +to 1.00183e-007
Heightened Def Con from 1.00183e-007 +to 1.00183e-007
Heightened Def Con from 1.00183e-007 to 1.00183e-007
Heightened Def Con from 1.00183e-007 to 1.00183e-007
Heightened Def Con from 1.00183e-007 to 1.00183e-007
Heightened Def Con from 1.00183e-007 to 1.00184e-007
Heightened Def Con from 1.00184e-007 to 1.00184e-007
Heightened Def Con from 1.00184e-007 +to 1.00199e-007
Heightened Def Con from 1.00199e-007 to 1.00199e-007
Heightened Def Con from 1.00199e-007 to 1.00199e-007
Heightened Def Con from 1.002e-007 to 1.002e-007
Heightened Def Con from 1.002e-007 +to 1.002e-007
Heightened Def Con from 1.002e-007 to 1.002e-007
Heightened Def Con from 1.002e-007 to 1.002e-007
Heightened Def Con from 1.002e-007 to 1.002e-007
Heightened Def Con from 1.002e-007 to 1.002e-007
Heightened Def Con from 1.002e-007 to 1.002e-007
Heightened Def Con from 1.002e-007 to 1.002e-007
Heightened Def Con from 1.002e-007 to 1.002e-007
Heightened Def Con from 1.002e-007 to 1.002e-007
Heightened Def Con from 1.002e-007 to 1.002e-007
Heightened Def Con from 1.002e-007 to 1.00201e-007
Heightened Def Con from 1.00201e-007 to 1.00201e-007
Heightened Def Con from 1.00201e-007 to 1.00201e-007
Heightened Def Con from 1.00201e-007 to 1.00201e-007
Heightened Def Con from 1.00201e-007 to 1.00201e-007
Heightened Def Con from 1.00201e-007 to 1.00201e-007
Heightened Def Con from 1.00201e-007 to 1.00201e-007
Heightened Def Con from 1.00202e-007 to 1.00202e-007
Heightened Def Con from 1.00202e-007 to 1.00202e-007
Heightened Def Con from 1.00202e-007 to 1.00202e-007
Heightened Def Con from 1.00202e-007 to 1.00327e-007
Heightened Def Con from 1.00327e-007 +to 1.00327e-007
Heightened Def Con from 1.00327e-007 to 1.00327e-007
Heightened Def Con from 1.00327e-007 to 1.00327e-007
Heightened Def Con from 1.00327e-007 to 1.00327e-007
Heightened Def Con from 1.00327e-007 to 1.00327e-007
Heightened Def Con from 1.00327e-007 +to 1.00327e-007
Heightened Def Con from 1.00327e-007 to 1.00327e-007
Heightened Def Con from 1.00327e-007 +to 1.00327e-007
Heightened Def Con from 1.00327e-007 to 1.00327e-007
Heightened Def Con from 1.00327e-007 to 1.00327e-007
Heightened Def Con from 1.00327e-007 to 1.00328e-007
Heightened Def Con from 1.00328e-007 to 1.00328e-007
Heightened Def Con from 1.00328e-007 to 1.00328e-007
Heightened Def Con from 1.00328e-007 to 1.00328e-007
Heightened Def Con from 1.00328e-007 to 1.00328e-007
Heightened Def Con from 1.00328e-007 to 1.00328e-007
Heightened Def Con from 1.00328e-007 +to 1.00343e-007
Heightened Def Con from 1.00343e-007 to 1.00343e-007
Heightened Def Con from 1.00343e-007 to 1.00344e-007
Heightened Def Con from 1.00344e-007 +to 1.00344e-007
Heightened Def Con from 1.00344e-007 to 1.00344e-007
Heightened Def Con from 1.00344e-007 to 1.00344e-007
Heightened Def Con from 1.00344e-007 to 1.00344e-007
Heightened Def Con from 1.00344e-007 +to 1.00344e-007
Heightened Def Con from 1.00344e-007 to 1.00344e-007
Heightened Def Con from 1.00344e-007 to 1.00344e-007
Heightened Def Con from 1.00344e-007 to 1.0036e-007
Heightened Def Con from 1.0036e-007 to 1.0036e-007
Heightened Def Con from 1.0036e-007 to 1.0036e-007
Heightened Def Con from 1.0036e-007 to 1.0036e-007
Heightened Def Con from 1.0036e-007 to 1.0036e-007
Heightened Def Con from 1.0036e-007 to 1.0036e-007
Heightened Def Con from 1.0036e-007 to 1.0136e-007
Heightened Def Con from 1.01361e-007 +to 1.01361e-007
Heightened Def Con from 1.01361e-007 to 1.01361e-007
Heightened Def Con from 1.01361e-007 to 1.01361e-007
Heightened Def Con from 1.01361e-007 to 1.01486e-007
Heightened Def Con from 1.01486e-007 +to 1.01486e-007
Heightened Def Con from 1.01486e-007 to 1.01486e-007
Heightened Def Con from 1.01486e-007 to 1.01486e-007
Heightened Def Con from 1.01486e-007 +to 1.01487e-007
Heightened Def Con from 1.01487e-007 to 1.01487e-007
Heightened Def Con from 1.01487e-007 +to 1.01487e-007
Heightened Def Con from 1.01487e-007 to 1.01487e-007
Heightened Def Con from 1.01487e-007 to 1.01487e-007
Heightened Def Con from 1.01487e-007 +to 1.01487e-007
Heightened Def Con from 1.01487e-007 to 1.01487e-007
Heightened Def Con from 1.01487e-007 +to 1.01487e-007
Heightened Def Con from 1.01487e-007 to 1.01487e-007
Heightened Def Con from 1.01488e-007 to 1.01488e-007
Heightened Def Con from 1.01488e-007 +to 1.01488e-007
Heightened Def Con from 1.01488e-007 to 1.01488e-007
Heightened Def Con from 1.01488e-007 to 1.01488e-007
Heightened Def Con from 1.01488e-007 to 1.01488e-007
Heightened Def Con from 1.01488e-007 to 1.01488e-007
Heightened Def Con from 1.01488e-007 to 1.01488e-007
Heightened Def Con from 1.01489e-007 to 1.01489e-007
Heightened Def Con from 1.01489e-007 to 1.01489e-007
Heightened Def Con from 1.01489e-007 to 1.01489e-007
Heightened Def Con from 1.01489e-007 to 1.01489e-007
Heightened Def Con from 1.01489e-007 to 1.01489e-007
Heightened Def Con from 1.01489e-007 to 1.01489e-007
Heightened Def Con from 1.01489e-007 to 1.0149e-007
Heightened Def Con from 1.0149e-007 to 1.0149e-007
Heightened Def Con from 1.0149e-007 to 1.0149e-007
Heightened Def Con from 1.0149e-007 to 1.0149e-007
Heightened Def Con from 1.0149e-007 to 1.0149e-007
Heightened Def Con from 1.0149e-007 to 1.0149e-007
Heightened Def Con from 1.0149e-007 to 1.0149e-007
Heightened Def Con from 1.0149e-007 to 1.0149e-007
Heightened Def Con from 1.0149e-007 to 1.0149e-007
Heightened Def Con from 1.0149e-007 to 1.0149e-007
Heightened Def Con from 1.0149e-007 to 1.0149e-007
Heightened Def Con from 1.01491e-007 to 1.01491e-007
Heightened Def Con from 1.01491e-007 +to 1.01491e-007
Heightened Def Con from 1.01491e-007 to 1.01491e-007
Heightened Def Con from 1.01491e-007 to 1.01491e-007
Heightened Def Con from 1.01491e-007 to 1.01491e-007
Heightened Def Con from 1.01491e-007 to 1.01491e-007
Heightened Def Con from 1.01491e-007 to 1.01491e-007
Heightened Def Con from 1.01491e-007 to 1.01491e-007
Heightened Def Con from 1.01491e-007 to 1.01491e-007
Heightened Def Con from 1.01491e-007 to 1.01491e-007
Heightened Def Con from 1.01491e-007 to 1.01491e-007
Heightened Def Con from 1.01491e-007 to 1.01491e-007
Heightened Def Con from 1.01491e-007 to 1.01491e-007
Heightened Def Con from 1.01491e-007 to 1.01492e-007
Heightened Def Con from 1.01492e-007 to 1.01492e-007
Heightened Def Con from 1.01492e-007 to 1.01492e-007
Heightened Def Con from 1.01492e-007 +to 1.01492e-007
Heightened Def Con from 1.01492e-007 +to 1.01492e-007
Heightened Def Con from 1.01492e-007 to 1.01492e-007
Heightened Def Con from 1.01492e-007 to 1.01492e-007
Heightened Def Con from 1.01492e-007 +to 1.01492e-007
Heightened Def Con from 1.01492e-007 to 1.01494e-007
Heightened Def Con from 1.01494e-007 +to 1.01494e-007
Heightened Def Con from 1.01495e-007 to 1.01495e-007
Heightened Def Con from 1.01495e-007 to 1.01495e-007
Heightened Def Con from 1.01495e-007 to 1.01495e-007
Heightened Def Con from 1.01495e-007 to 1.01495e-007
Heightened Def Con from 1.01495e-007 to 1.01511e-007
Heightened Def Con from 1.01511e-007 to 1.01511e-007
Heightened Def Con from 1.01511e-007 to 1.01511e-007
Heightened Def Con from 1.01511e-007 to 1.01511e-007
Heightened Def Con from 1.01511e-007 to 1.01511e-007
Heightened Def Con from 1.01512e-007 to 1.01512e-007
Heightened Def Con from 1.01512e-007 to 1.01512e-007
Heightened Def Con from 1.01512e-007 to 1.01512e-007
Heightened Def Con from 1.01512e-007 to 1.01512e-007
Heightened Def Con from 1.01512e-007 to 1.01512e-007
Heightened Def Con from 1.01512e-007 to 1.01512e-007
Heightened Def Con from 1.01512e-007 +to 1.01512e-007
Heightened Def Con from 1.01512e-007 to 1.01512e-007
Heightened Def Con from 1.01512e-007 to 1.01637e-007
Heightened Def Con from 1.01637e-007 to 1.01637e-007
Heightened Def Con from 1.01637e-007 to 1.01638e-007
Heightened Def Con from 1.01638e-007 +to 1.01638e-007
Heightened Def Con from 1.01638e-007 to 1.01638e-007
Heightened Def Con from 1.01638e-007 to 1.01638e-007
Heightened Def Con from 1.01638e-007 to 1.01638e-007
Heightened Def Con from 1.01638e-007 +to 1.01638e-007
Heightened Def Con from 1.01638e-007 to 1.01654e-007
Heightened Def Con from 1.01654e-007 to 1.01654e-007
Heightened Def Con from 1.01654e-007 to 1.01654e-007
Heightened Def Con from 1.01654e-007 to 1.01654e-007
Heightened Def Con from 1.01654e-007 +to 1.01654e-007
Heightened Def Con from 1.01654e-007 to 1.01655e-007
Heightened Def Con from 1.01655e-007 to 1.01655e-007
Heightened Def Con from 1.01655e-007 +to 1.01655e-007
Heightened Def Con from 1.01655e-007 to 1.01655e-007
Heightened Def Con from 1.01655e-007 +to 1.01655e-007
Heightened Def Con from 1.01655e-007 to 1.01655e-007
Heightened Def Con from 1.01655e-007 to 1.01655e-007
Heightened Def Con from 1.01656e-007 to 1.01656e-007
Heightened Def Con from 1.01656e-007 to 1.01656e-007
Heightened Def Con from 1.01656e-007 to 1.01656e-007
Heightened Def Con from 1.01656e-007 to 1.01656e-007
Heightened Def Con from 1.01656e-007 to 1.01656e-007
Heightened Def Con from 1.01656e-007 to 1.01656e-007
Heightened Def Con from 1.01656e-007 +to 1.01656e-007
Heightened Def Con from 1.01656e-007 +to 1.01656e-007
Heightened Def Con from 1.01656e-007 to 1.01656e-007
Heightened Def Con from 1.01656e-007 to 1.01656e-007
Heightened Def Con from 1.01656e-007 to 1.01658e-007
Heightened Def Con from 1.01658e-007 +to 1.01658e-007
Heightened Def Con from 1.01658e-007 to 1.01658e-007
Heightened Def Con from 1.01658e-007 to 1.01659e-007
Heightened Def Con from 1.01659e-007 to 1.01659e-007
Heightened Def Con from 1.01659e-007 to 1.01659e-007
Heightened Def Con from 1.01659e-007 to 1.01659e-007
Heightened Def Con from 1.01659e-007 to 1.01659e-007
Heightened Def Con from 1.01659e-007 to 1.01659e-007
Heightened Def Con from 1.01659e-007 to 1.01659e-007
Heightened Def Con from 1.01659e-007 to 1.01659e-007
Heightened Def Con from 1.0166e-007 to 1.0166e-007
Heightened Def Con from 1.0166e-007 to 1.0166e-007
Heightened Def Con from 1.0166e-007 to 1.0166e-007
Heightened Def Con from 1.0166e-007 to 1.0166e-007
Heightened Def Con from 1.0166e-007 to 1.0166e-007
Heightened Def Con from 1.0166e-007 to 1.0166e-007
Heightened Def Con from 1.0166e-007 to 1.0166e-007
Heightened Def Con from 1.0166e-007 to 1.0166e-007
Heightened Def Con from 1.0166e-007 +to 1.0166e-007
Heightened Def Con from 1.0166e-007 to 1.0166e-007
Heightened Def Con from 1.0166e-007 to 1.0166e-007
Heightened Def Con from 1.0166e-007 to 1.0166e-007
Heightened Def Con from 1.0166e-007 to 1.0166e-007
Heightened Def Con from 1.0166e-007 to 1.0166e-007
Heightened Def Con from 1.0166e-007 to 1.0166e-007
Heightened Def Con from 1.0166e-007 to 1.0166e-007
Heightened Def Con from 1.0166e-007 to 1.0166e-007
Heightened Def Con from 1.0166e-007 to 1.01661e-007
Heightened Def Con from 1.01661e-007 to 1.01661e-007
Heightened Def Con from 1.01661e-007 to 1.01661e-007
Heightened Def Con from 1.01661e-007 to 1.01661e-007
Heightened Def Con from 1.01661e-007 to 1.01661e-007
Heightened Def Con from 1.01661e-007 to 1.01661e-007
Heightened Def Con from 1.01661e-007 to 1.01661e-007
Heightened Def Con from 1.01662e-007 to 1.01662e-007
Heightened Def Con from 1.01662e-007 to 1.01662e-007
Heightened Def Con from 1.01662e-007 to 1.01662e-007
Heightened Def Con from 1.01662e-007 to 1.01662e-007
Heightened Def Con from 1.01662e-007 to 1.01662e-007
Heightened Def Con from 1.01662e-007 to 1.01662e-007
Heightened Def Con from 1.01662e-007 to 1.01662e-007
Heightened Def Con from 1.01662e-007 to 1.01662e-007
Heightened Def Con from 1.01662e-007 to 1.01662e-007
Heightened Def Con from 1.01662e-007 to 1.01662e-007
Heightened Def Con from 1.01662e-007 to 1.01662e-007
Heightened Def Con from 1.01662e-007 to 1.01664e-007
Heightened Def Con from 1.01665e-007 to 1.01665e-007
Heightened Def Con from 1.01665e-007 +to 1.01665e-007
Heightened Def Con from 1.01665e-007 to 1.01666e-007
Heightened Def Con from 1.01666e-007 to 1.01666e-007
Heightened Def Con from 1.01666e-007 to 1.01666e-007
Heightened Def Con from 1.01666e-007 to 1.01666e-007
Heightened Def Con from 1.01666e-007 to 1.01666e-007
Heightened Def Con from 1.01666e-007 to 1.01666e-007
Heightened Def Con from 1.01666e-007 to 1.01666e-007
Heightened Def Con from 1.01666e-007 to 1.01666e-007
Heightened Def Con from 1.01666e-007 to 1.01666e-007
Heightened Def Con from 1.01666e-007 to 1.01666e-007
Heightened Def Con from 1.01666e-007 to 1.01666e-007
Heightened Def Con from 1.01666e-007 to 1.01666e-007
Heightened Def Con from 1.01666e-007 to 1.01667e-007
Heightened Def Con from 1.01667e-007 to 1.01667e-007
Heightened Def Con from 1.01667e-007 to 1.01667e-007
Heightened Def Con from 1.01667e-007 to 1.01667e-007
Heightened Def Con from 1.01667e-007 to 1.01669e-007
Heightened Def Con from 1.0167e-007 to 1.0167e-007
Heightened Def Con from 1.0167e-007 to 1.0167e-007
Heightened Def Con from 1.0167e-007 to 1.0167e-007
Heightened Def Con from 1.0167e-007 to 1.0167e-007
Heightened Def Con from 1.0167e-007 to 1.0167e-007
Heightened Def Con from 1.0167e-007 to 1.0167e-007
Heightened Def Con from 1.0167e-007 to 1.0167e-007
Heightened Def Con from 1.0167e-007 to 1.0167e-007
Heightened Def Con from 1.0167e-007 to 1.0167e-007
Heightened Def Con from 1.0167e-007 to 1.01671e-007
Heightened Def Con from 1.01671e-007 to 1.01671e-007
Heightened Def Con from 1.01671e-007 to 1.01671e-007
Heightened Def Con from 1.01671e-007 to 1.01671e-007
Heightened Def Con from 1.01671e-007 +to 1.01671e-007
Heightened Def Con from 1.01671e-007 to 1.01671e-007
Heightened Def Con from 1.01671e-007 to 1.01671e-007
Heightened Def Con from 1.01671e-007 to 1.01671e-007
Heightened Def Con from 1.01671e-007 to 1.01671e-007
Heightened Def Con from 1.01671e-007 to 1.01671e-007
Heightened Def Con from 1.01671e-007 to 1.01671e-007
Heightened Def Con from 1.01671e-007 to 1.01671e-007
Heightened Def Con from 1.01671e-007 to 1.01671e-007
Heightened Def Con from 1.01671e-007 to 1.01671e-007
Heightened Def Con from 1.01671e-007 to 1.01671e-007
Heightened Def Con from 1.01671e-007 to 1.01671e-007
Heightened Def Con from 1.01671e-007 to 1.01671e-007
Heightened Def Con from 1.01672e-007 to 1.01672e-007
Heightened Def Con from 1.01672e-007 to 1.01672e-007
Heightened Def Con from 1.01672e-007 to 1.01672e-007
Heightened Def Con from 1.01672e-007 to 1.01672e-007
Heightened Def Con from 1.01672e-007 to 1.01672e-007
Heightened Def Con from 1.01672e-007 to 1.01674e-007
Heightened Def Con from 1.01674e-007 to 1.01674e-007
Heightened Def Con from 1.01674e-007 to 1.01674e-007
Heightened Def Con from 1.01674e-007 to 1.01674e-007
Heightened Def Con from 1.01674e-007 to 1.01674e-007
Heightened Def Con from 1.01675e-007 to 1.01675e-007
Heightened Def Con from 1.01675e-007 +to 1.01675e-007
Heightened Def Con from 1.01675e-007 to 1.01675e-007
Heightened Def Con from 1.01675e-007 +to 1.01675e-007
Heightened Def Con from 1.01675e-007 to 1.01675e-007
Heightened Def Con from 1.01675e-007 to 1.01675e-007
Heightened Def Con from 1.01675e-007 to 1.01675e-007
Heightened Def Con from 1.01675e-007 to 1.01675e-007
Heightened Def Con from 1.01675e-007 to 1.01675e-007
Heightened Def Con from 1.01675e-007 to 1.01675e-007
Heightened Def Con from 1.01676e-007 to 1.01676e-007
Heightened Def Con from 1.01676e-007 +to 1.01676e-007
Heightened Def Con from 1.01676e-007 to 1.01676e-007
Heightened Def Con from 1.01676e-007 to 1.01676e-007
Heightened Def Con from 1.01676e-007 to 1.01692e-007
Heightened Def Con from 1.01692e-007 to 1.01692e-007
Heightened Def Con from 1.01692e-007 +to 1.01692e-007
Heightened Def Con from 1.01692e-007 +to 1.01692e-007
Heightened Def Con from 1.01692e-007 to 1.01692e-007
Heightened Def Con from 1.01692e-007 to 1.01817e-007
Heightened Def Con from 1.01817e-007 to 1.01817e-007
Heightened Def Con from 1.01817e-007 +to 1.01817e-007
Heightened Def Con from 1.01817e-007 to 1.01818e-007
Heightened Def Con from 1.01818e-007 to 1.01818e-007
Heightened Def Con from 1.01818e-007 to 1.01833e-007
Heightened Def Con from 1.01833e-007 +to 1.01833e-007
Heightened Def Con from 1.01833e-007 to 1.01833e-007
Heightened Def Con from 1.01833e-007 to 1.01833e-007
Heightened Def Con from 1.01834e-007 to 1.01834e-007
Heightened Def Con from 1.01834e-007 to 1.01834e-007
Heightened Def Con from 1.01834e-007 +to 1.01834e-007
Heightened Def Con from 1.01834e-007 to 1.01834e-007
Heightened Def Con from 1.01834e-007 to 1.01834e-007
Heightened Def Con from 1.01834e-007 +to 1.01834e-007
Heightened Def Con from 1.01834e-007 to 1.01834e-007
Heightened Def Con from 1.01834e-007 to 1.01834e-007
Heightened Def Con from 1.01834e-007 to 1.01834e-007
Heightened Def Con from 1.01834e-007 to 1.01834e-007
Heightened Def Con from 1.01834e-007 to 1.01834e-007
Heightened Def Con from 1.01834e-007 +to 1.01834e-007
Heightened Def Con from 1.01834e-007 to 1.01834e-007
Heightened Def Con from 1.01834e-007 +to 1.01834e-007
Heightened Def Con from 1.01834e-007 +to 1.01834e-007
Heightened Def Con from 1.01834e-007 to 1.01835e-007
Heightened Def Con from 1.01835e-007 to 1.01835e-007
Heightened Def Con from 1.01835e-007 +to 1.01835e-007
Heightened Def Con from 1.01835e-007 to 1.01835e-007
Heightened Def Con from 1.01835e-007 to 1.0196e-007
Heightened Def Con from 1.0196e-007 to 1.0196e-007
Heightened Def Con from 1.0196e-007 to 1.01961e-007
Heightened Def Con from 1.01961e-007 to 1.01961e-007
Heightened Def Con from 1.01961e-007 to 1.01961e-007
Heightened Def Con from 1.01961e-007 to 1.01961e-007
Heightened Def Con from 1.01961e-007 to 1.01961e-007
Heightened Def Con from 1.01961e-007 +to 1.01961e-007
Heightened Def Con from 1.01961e-007 to 1.01961e-007
Heightened Def Con from 1.01961e-007 to 1.01961e-007
Heightened Def Con from 1.01961e-007 to 1.01961e-007
Heightened Def Con from 1.01961e-007 to 1.01961e-007
Heightened Def Con from 1.01961e-007 +to 1.01961e-007
Heightened Def Con from 1.01961e-007 to 1.01961e-007
Heightened Def Con from 1.01961e-007 to 1.01962e-007
Heightened Def Con from 1.01962e-007 to 1.01962e-007
Heightened Def Con from 1.01962e-007 to 1.01962e-007
Heightened Def Con from 1.01962e-007 to 1.01962e-007
Heightened Def Con from 1.01962e-007 to 1.01962e-007
Heightened Def Con from 1.01962e-007 to 1.01962e-007
Heightened Def Con from 1.01962e-007 to 1.01962e-007
Heightened Def Con from 1.01962e-007 to 1.01962e-007
Heightened Def Con from 1.01962e-007 to 1.01962e-007
Heightened Def Con from 1.01962e-007 to 1.01963e-007
Heightened Def Con from 1.01963e-007 to 1.01963e-007
Heightened Def Con from 1.01963e-007 to 1.01963e-007
Heightened Def Con from 1.01963e-007 to 1.01963e-007
Heightened Def Con from 1.01963e-007 to 1.01963e-007
Heightened Def Con from 1.01963e-007 to 1.01963e-007
Heightened Def Con from 1.01963e-007 to 1.01963e-007
Heightened Def Con from 1.01963e-007 to 1.01963e-007
Heightened Def Con from 1.01963e-007 to 1.01963e-007
Heightened Def Con from 1.01963e-007 to 1.01963e-007
Heightened Def Con from 1.01964e-007 to 1.01964e-007
Heightened Def Con from 1.01964e-007 to 1.01964e-007
Heightened Def Con from 1.01964e-007 to 1.01964e-007
Heightened Def Con from 1.01964e-007 to 1.01964e-007
Heightened Def Con from 1.01965e-007 to 1.01965e-007
Heightened Def Con from 1.01965e-007 to 1.01965e-007
Heightened Def Con from 1.01965e-007 to 1.01965e-007
Heightened Def Con from 1.01965e-007 to 1.01965e-007
Heightened Def Con from 1.01965e-007 to 1.01965e-007
Heightened Def Con from 1.01965e-007 to 1.01965e-007
Heightened Def Con from 1.01965e-007 to 1.01965e-007
Heightened Def Con from 1.01965e-007 to 1.01965e-007
Heightened Def Con from 1.01965e-007 to 1.01965e-007
Heightened Def Con from 1.01965e-007 to 1.01965e-007
Heightened Def Con from 1.01965e-007 to 1.01965e-007
Heightened Def Con from 1.01965e-007 to 1.01965e-007
Heightened Def Con from 1.01965e-007 to 1.01965e-007
Heightened Def Con from 1.01965e-007 to 1.01965e-007
Heightened Def Con from 1.01965e-007 to 1.01965e-007
Heightened Def Con from 1.01966e-007 to 1.01966e-007
Heightened Def Con from 1.01966e-007 +to 1.01966e-007
Heightened Def Con from 1.01966e-007 to 1.01966e-007
Heightened Def Con from 1.01966e-007 to 1.01966e-007
Heightened Def Con from 1.01966e-007 to 1.01966e-007
Heightened Def Con from 1.01966e-007 to 1.01966e-007
Heightened Def Con from 1.01966e-007 to 1.01966e-007
Heightened Def Con from 1.01966e-007 to 1.01966e-007
Heightened Def Con from 1.01966e-007 to 1.01966e-007
Heightened Def Con from 1.01966e-007 to 1.01967e-007
Heightened Def Con from 1.01967e-007 to 1.01967e-007
Heightened Def Con from 1.01967e-007 to 1.01967e-007
Heightened Def Con from 1.01967e-007 to 1.01967e-007
Heightened Def Con from 1.01967e-007 to 1.01967e-007
Heightened Def Con from 1.01967e-007 to 1.01967e-007
Heightened Def Con from 1.01967e-007 to 1.01968e-007
Heightened Def Con from 1.01968e-007 to 1.01968e-007
Heightened Def Con from 1.01968e-007 to 1.0197e-007
Heightened Def Con from 1.0197e-007 to 1.0197e-007
Heightened Def Con from 1.0197e-007 to 1.0197e-007
Heightened Def Con from 1.0197e-007 to 1.0197e-007
Heightened Def Con from 1.0197e-007 to 1.0197e-007
Heightened Def Con from 1.0197e-007 to 1.0197e-007
Heightened Def Con from 1.0197e-007 to 1.0197e-007
Heightened Def Con from 1.0197e-007 to 1.0197e-007
Heightened Def Con from 1.0197e-007 to 1.0197e-007
Heightened Def Con from 1.0197e-007 to 1.0197e-007
Heightened Def Con from 1.0197e-007 to 1.0197e-007
Heightened Def Con from 1.0197e-007 to 1.0197e-007
Heightened Def Con from 1.0197e-007 to 1.0197e-007
Heightened Def Con from 1.0197e-007 to 1.01971e-007
Heightened Def Con from 1.01971e-007 to 1.01971e-007
Heightened Def Con from 1.01971e-007 to 1.01971e-007
Heightened Def Con from 1.01971e-007 to 1.01971e-007
Heightened Def Con from 1.01971e-007 to 1.01987e-007
Heightened Def Con from 1.01987e-007 +to 1.01987e-007
Heightened Def Con from 1.01987e-007 to 1.01987e-007
Heightened Def Con from 1.01987e-007 to 1.01987e-007
Heightened Def Con from 1.01987e-007 to 1.01987e-007
Heightened Def Con from 1.01987e-007 to 1.01987e-007
Heightened Def Con from 1.01987e-007 +to 1.01987e-007
Heightened Def Con from 1.01987e-007 to 1.01987e-007
Heightened Def Con from 1.01988e-007 to 1.01988e-007
Heightened Def Con from 1.01988e-007 to 1.01988e-007
Heightened Def Con from 1.01988e-007 to 1.01988e-007
Heightened Def Con from 1.01988e-007 to 1.02003e-007
Heightened Def Con from 1.02003e-007 to 1.02003e-007
Heightened Def Con from 1.02003e-007 to 1.02003e-007
Heightened Def Con from 1.02003e-007 to 1.02003e-007
Heightened Def Con from 1.02003e-007 to 1.02004e-007
Heightened Def Con from 1.02004e-007 to 1.02004e-007
Heightened Def Con from 1.02004e-007 to 1.02004e-007
Heightened Def Con from 1.02004e-007 to 1.02004e-007
Heightened Def Con from 1.02004e-007 to 1.02004e-007
Heightened Def Con from 1.02004e-007 to 1.02004e-007
Heightened Def Con from 1.02004e-007 to 1.02004e-007
Heightened Def Con from 1.02004e-007 to 1.02004e-007
Heightened Def Con from 1.02004e-007 to 1.02004e-007
Heightened Def Con from 1.02004e-007 to 1.02004e-007
Heightened Def Con from 1.02004e-007 to 1.02004e-007
Heightened Def Con from 1.02004e-007 to 1.02004e-007
Heightened Def Con from 1.02004e-007 to 1.02004e-007
Heightened Def Con from 1.02004e-007 to 1.02004e-007
Heightened Def Con from 1.02004e-007 to 1.02004e-007
Heightened Def Con from 1.02004e-007 to 1.02004e-007
Heightened Def Con from 1.02004e-007 to 1.02005e-007
Heightened Def Con from 1.02005e-007 to 1.02005e-007
Heightened Def Con from 1.02005e-007 to 1.02007e-007
Heightened Def Con from 1.02007e-007 to 1.02007e-007
Heightened Def Con from 1.02007e-007 to 1.02007e-007
Heightened Def Con from 1.02007e-007 +to 1.02007e-007
Heightened Def Con from 1.02007e-007 to 1.02007e-007
Heightened Def Con from 1.02007e-007 to 1.02007e-007
Heightened Def Con from 1.02007e-007 to 1.02007e-007
Heightened Def Con from 1.02007e-007 to 1.02008e-007
Heightened Def Con from 1.02008e-007 to 1.02008e-007
Heightened Def Con from 1.02008e-007 to 1.02008e-007
Heightened Def Con from 1.02008e-007 to 1.02008e-007
Heightened Def Con from 1.02008e-007 to 1.02008e-007
Heightened Def Con from 1.02008e-007 to 1.02039e-007
Heightened Def Con from 1.02039e-007 to 1.02039e-007
Heightened Def Con from 1.02039e-007 to 1.03039e-007
Heightened Def Con from 1.03039e-007 +to 1.03039e-007
Heightened Def Con from 1.03039e-007 to 1.03039e-007
Heightened Def Con from 1.0304e-007 to 1.0304e-007
Heightened Def Con from 1.0304e-007 to 1.0304e-007
Heightened Def Con from 1.0304e-007 to 1.0304e-007
Heightened Def Con from 1.0304e-007 +to 1.0304e-007
Heightened Def Con from 1.0304e-007 to 1.0304e-007
Heightened Def Con from 1.0304e-007 to 1.0304e-007
Heightened Def Con from 1.0304e-007 to 1.0304e-007
Heightened Def Con from 1.0304e-007 to 1.0304e-007
Heightened Def Con from 1.0304e-007 to 1.0304e-007
Heightened Def Con from 1.0304e-007 to 1.0304e-007
Heightened Def Con from 1.0304e-007 to 1.03041e-007
Heightened Def Con from 1.03041e-007 to 1.03043e-007
Heightened Def Con from 1.03043e-007 to 1.03043e-007
Heightened Def Con from 1.03043e-007 to 1.03043e-007
Heightened Def Con from 1.03043e-007 +to 1.03168e-007
Heightened Def Con from 1.03168e-007 +to 1.03168e-007
Heightened Def Con from 1.03168e-007 +to 1.03169e-007
Heightened Def Con from 1.03169e-007 to 1.03171e-007
Heightened Def Con from 1.03171e-007 to 1.03171e-007
Heightened Def Con from 1.03171e-007 to 1.03171e-007
Heightened Def Con from 1.03171e-007 to 1.03171e-007
Heightened Def Con from 1.03171e-007 to 1.03171e-007
Heightened Def Con from 1.03171e-007 to 1.03171e-007
Heightened Def Con from 1.03171e-007 to 1.03171e-007
Heightened Def Con from 1.03172e-007 to 1.03172e-007
Heightened Def Con from 1.03172e-007 to 1.03172e-007
Heightened Def Con from 1.03172e-007 to 1.03172e-007
Heightened Def Con from 1.03172e-007 to 1.03172e-007
Heightened Def Con from 1.03172e-007 to 1.03172e-007
Heightened Def Con from 1.03172e-007 to 1.03172e-007
Heightened Def Con from 1.03172e-007 to 1.03172e-007
Heightened Def Con from 1.03172e-007 to 1.03172e-007
Heightened Def Con from 1.03172e-007 to 1.03173e-007
Heightened Def Con from 1.03173e-007 to 1.03173e-007
Heightened Def Con from 1.03173e-007 to 1.03173e-007
Heightened Def Con from 1.03173e-007 to 1.03173e-007
Heightened Def Con from 1.03173e-007 to 1.03173e-007
Heightened Def Con from 1.03173e-007 to 1.04173e-007
Heightened Def Con from 1.04173e-007 to 1.04173e-007
Heightened Def Con from 1.04173e-007 to 1.04173e-007
Heightened Def Con from 1.04173e-007 to 1.04175e-007
Heightened Def Con from 1.04176e-007 +to 1.04301e-007
Heightened Def Con from 1.04301e-007 to 1.04301e-007
Heightened Def Con from 1.04301e-007 to 1.04301e-007
Heightened Def Con from 1.04301e-007 +to 1.04301e-007
Heightened Def Con from 1.04301e-007 to 1.04301e-007
Heightened Def Con from 1.04302e-007 to 1.04302e-007
Heightened Def Con from 1.04302e-007 to 1.04302e-007
Heightened Def Con from 1.04302e-007 to 1.04302e-007
Heightened Def Con from 1.04302e-007 +to 1.04443e-007
Heightened Def Con from 1.04443e-007 to 1.04443e-007
Heightened Def Con from 1.04443e-007 to 1.04443e-007
Heightened Def Con from 1.04443e-007 +to 1.04444e-007
Heightened Def Con from 1.04444e-007 to 1.04444e-007
Heightened Def Con from 1.04444e-007 to 1.04444e-007
Heightened Def Con from 1.04444e-007 to 1.04444e-007
Heightened Def Con from 1.04444e-007 to 1.04445e-007
Heightened Def Con from 1.04445e-007 to 1.04445e-007
Heightened Def Con from 1.04445e-007 to 1.04445e-007
Heightened Def Con from 1.04445e-007 to 1.04445e-007
Heightened Def Con from 1.04445e-007 +to 1.04445e-007
Heightened Def Con from 1.04445e-007 to 1.04445e-007
Heightened Def Con from 1.04445e-007 to 1.04445e-007
Heightened Def Con from 1.04446e-007 +to 1.04446e-007
Heightened Def Con from 1.04446e-007 to 1.04446e-007
Heightened Def Con from 1.04446e-007 +to 1.04446e-007
Heightened Def Con from 1.04446e-007 to 1.04446e-007
Heightened Def Con from 1.04446e-007 to 1.04446e-007
Heightened Def Con from 1.04446e-007 to 1.04446e-007
Heightened Def Con from 1.04446e-007 to 1.04446e-007
Heightened Def Con from 1.04446e-007 to 1.04447e-007
Heightened Def Con from 1.04447e-007 to 1.04447e-007
Heightened Def Con from 1.04447e-007 to 1.04447e-007
Heightened Def Con from 1.04447e-007 to 1.04572e-007
Heightened Def Con from 1.04572e-007 to 1.04572e-007
Heightened Def Con from 1.04572e-007 to 1.04572e-007
Heightened Def Con from 1.04572e-007 +to 1.04572e-007
Heightened Def Con from 1.04572e-007 to 1.04572e-007
Heightened Def Con from 1.04572e-007 +to 1.04572e-007
Heightened Def Con from 1.04572e-007 to 1.04573e-007
Heightened Def Con from 1.04573e-007 to 1.04573e-007
Heightened Def Con from 1.04573e-007 to 1.04573e-007
Heightened Def Con from 1.04574e-007 to 1.04574e-007
Heightened Def Con from 1.04574e-007 to 1.04574e-007
Heightened Def Con from 1.04574e-007 to 1.04574e-007
Heightened Def Con from 1.04574e-007 to 1.04574e-007
Heightened Def Con from 1.04574e-007 to 1.04576e-007
Heightened Def Con from 1.04576e-007 to 1.04576e-007
Heightened Def Con from 1.04576e-007 to 1.04576e-007
Heightened Def Con from 1.04576e-007 to 1.04576e-007
Heightened Def Con from 1.04576e-007 to 1.04576e-007
Heightened Def Con from 1.04576e-007 to 1.04577e-007
Heightened Def Con from 1.04577e-007 to 1.04577e-007
Heightened Def Con from 1.04577e-007 to 1.04577e-007
Heightened Def Con from 1.04578e-007 to 1.04578e-007
Heightened Def Con from 1.04578e-007 +to 1.04578e-007
Heightened Def Con from 1.04578e-007 +to 1.04578e-007
Heightened Def Con from 1.04578e-007 to 1.04578e-007
Heightened Def Con from 1.04578e-007 +to 1.04578e-007
Heightened Def Con from 1.04578e-007 to 1.04578e-007
Heightened Def Con from 1.04578e-007 to 1.04578e-007
Heightened Def Con from 1.04578e-007 to 1.04578e-007
Heightened Def Con from 1.04578e-007 to 1.04578e-007
Heightened Def Con from 1.04578e-007 +to 1.04578e-007
Heightened Def Con from 1.04578e-007 to 1.04578e-007
Heightened Def Con from 1.04578e-007 to 1.04578e-007
Heightened Def Con from 1.04578e-007 to 1.04578e-007
Heightened Def Con from 1.04579e-007 to 1.04579e-007
Heightened Def Con from 1.04579e-007 to 1.04579e-007
Heightened Def Con from 1.04579e-007 to 1.04579e-007
Heightened Def Con from 1.04579e-007 to 1.04579e-007
Heightened Def Con from 1.04579e-007 to 1.04579e-007
Heightened Def Con from 1.04579e-007 to 1.04579e-007
Heightened Def Con from 1.04579e-007 to 1.0458e-007
Heightened Def Con from 1.0458e-007 +to 1.0458e-007
Heightened Def Con from 1.0458e-007 to 1.0458e-007
Heightened Def Con from 1.0458e-007 to 1.0458e-007
Heightened Def Con from 1.0458e-007 to 1.0458e-007
Heightened Def Con from 1.0458e-007 to 1.0458e-007
Heightened Def Con from 1.0458e-007 to 1.0458e-007
Heightened Def Con from 1.04581e-007 to 1.05581e-007
Heightened Def Con from 1.05581e-007 +to 1.05581e-007
Heightened Def Con from 1.05581e-007 to 1.05581e-007
Heightened Def Con from 1.05581e-007 to 1.05581e-007
Heightened Def Con from 1.05581e-007 to 1.05581e-007
Heightened Def Con from 1.05581e-007 to 1.05581e-007
Heightened Def Con from 1.05581e-007 to 1.05581e-007
Heightened Def Con from 1.05581e-007 to 1.05582e-007
Heightened Def Con from 1.05582e-007 to 1.05582e-007
Heightened Def Con from 1.05582e-007 to 1.05582e-007
Heightened Def Con from 1.05582e-007 to 1.05582e-007
Heightened Def Con from 1.05582e-007 to 1.05582e-007
Heightened Def Con from 1.05582e-007 to 1.05582e-007
Heightened Def Con from 1.05582e-007 to 1.05582e-007
Heightened Def Con from 1.05582e-007 to 1.05583e-007
Heightened Def Con from 1.05583e-007 to 1.05583e-007
Heightened Def Con from 1.05583e-007 to 1.05583e-007
Heightened Def Con from 1.05583e-007 to 1.05583e-007
Heightened Def Con from 1.05583e-007 to 1.05583e-007
Heightened Def Con from 1.05583e-007 to 1.05583e-007
Heightened Def Con from 1.05584e-007 to 1.05584e-007
Heightened Def Con from 1.05584e-007 to 1.05584e-007
Heightened Def Con from 1.05584e-007 to 1.05584e-007
Heightened Def Con from 1.05584e-007 to 1.056e-007
Heightened Def Con from 1.056e-007 to 1.056e-007
Heightened Def Con from 1.056e-007 to 1.056e-007
Heightened Def Con from 1.056e-007 to 1.05601e-007
Heightened Def Con from 1.05601e-007 +to 1.05601e-007
Heightened Def Con from 1.05601e-007 to 1.05601e-007
Heightened Def Con from 1.05601e-007 to 1.05603e-007
Heightened Def Con from 1.05603e-007 to 1.05603e-007
Heightened Def Con from 1.05603e-007 to 1.05603e-007
Heightened Def Con from 1.05603e-007 to 1.05603e-007
Heightened Def Con from 1.05603e-007 to 1.05603e-007
Heightened Def Con from 1.05603e-007 to 1.05603e-007
Heightened Def Con from 1.05603e-007 to 1.05603e-007
Heightened Def Con from 1.05603e-007 to 1.05603e-007
Heightened Def Con from 1.05603e-007 to 1.05603e-007
Heightened Def Con from 1.05603e-007 to 1.05728e-007
Heightened Def Con from 1.05728e-007 to 1.05728e-007
Heightened Def Con from 1.05728e-007 +to 1.05728e-007
Heightened Def Con from 1.05728e-007 +to 1.05728e-007
Heightened Def Con from 1.05728e-007 to 1.05728e-007
Heightened Def Con from 1.05728e-007 to 1.05728e-007
Heightened Def Con from 1.05728e-007 ++to 1.05729e-007
Heightened Def Con from 1.05729e-007 to 1.05729e-007
Heightened Def Con from 1.05729e-007 to 1.05729e-007
Heightened Def Con from 1.05729e-007 to 1.05729e-007
Heightened Def Con from 1.05729e-007 to 1.05729e-007
Heightened Def Con from 1.05729e-007 to 1.05729e-007
Heightened Def Con from 1.05729e-007 to 1.05745e-007
Heightened Def Con from 1.05745e-007 to 1.05745e-007
Heightened Def Con from 1.05745e-007 to 1.05745e-007
Heightened Def Con from 1.05745e-007 to 1.05747e-007
Heightened Def Con from 1.05747e-007 to 1.05747e-007
Heightened Def Con from 1.05747e-007 to 1.05747e-007
Heightened Def Con from 1.05747e-007 to 1.05747e-007
Heightened Def Con from 1.05747e-007 to 1.05747e-007
Heightened Def Con from 1.05747e-007 to 1.05747e-007
Heightened Def Con from 1.05748e-007 to 1.0575e-007
Heightened Def Con from 1.0575e-007 +to 1.0575e-007
Heightened Def Con from 1.0575e-007 +to 1.0575e-007
Heightened Def Con from 1.0575e-007 to 1.0575e-007
Heightened Def Con from 1.0575e-007 to 1.05766e-007
Heightened Def Con from 1.05766e-007 to 1.05766e-007
Heightened Def Con from 1.05766e-007 to 1.05766e-007
Heightened Def Con from 1.05766e-007 to 1.05766e-007
Heightened Def Con from 1.05766e-007 to 1.05766e-007
Heightened Def Con from 1.05766e-007 +to 1.05891e-007
Heightened Def Con from 1.05891e-007 to 1.05892e-007
Heightened Def Con from 1.05892e-007 +to 1.05892e-007
Heightened Def Con from 1.05892e-007 to 1.05892e-007
Heightened Def Con from 1.05892e-007 to 1.05892e-007
Heightened Def Con from 1.05892e-007 to 1.05892e-007
Heightened Def Con from 1.05892e-007 to 1.05892e-007
Heightened Def Con from 1.05892e-007 +to 1.05892e-007
Heightened Def Con from 1.05892e-007 +to 1.05892e-007
Heightened Def Con from 1.05892e-007 to 1.05892e-007
Heightened Def Con from 1.05892e-007 to 1.05892e-007
Heightened Def Con from 1.05892e-007 to 1.05893e-007
Heightened Def Con from 1.05893e-007 to 1.05893e-007
Heightened Def Con from 1.05893e-007 to 1.06893e-007
Heightened Def Con from 1.06893e-007 to 1.06893e-007
Heightened Def Con from 1.06893e-007 to 1.06895e-007
Heightened Def Con from 1.06895e-007 to 1.06895e-007
Heightened Def Con from 1.06895e-007 to 1.06895e-007
Heightened Def Con from 1.06895e-007 to 1.06895e-007
Heightened Def Con from 1.06895e-007 to 1.06895e-007
Heightened Def Con from 1.06895e-007 to 1.06895e-007
Heightened Def Con from 1.06895e-007 +to 1.0702e-007
Heightened Def Con from 1.0702e-007 to 1.0702e-007
Heightened Def Con from 1.0702e-007 to 1.07145e-007
Heightened Def Con from 1.07145e-007 +to 1.07145e-007
Heightened Def Con from 1.07145e-007 +to 1.07146e-007
Heightened Def Con from 1.07146e-007 to 1.07146e-007
Heightened Def Con from 1.07146e-007 to 1.07146e-007
Heightened Def Con from 1.07146e-007 to 1.07146e-007
Heightened Def Con from 1.07146e-007 +to 1.07146e-007
Heightened Def Con from 1.07146e-007 to 1.07146e-007
Heightened Def Con from 1.07146e-007 to 1.07146e-007
Heightened Def Con from 1.07146e-007 to 1.07146e-007
Heightened Def Con from 1.07146e-007 to 1.07146e-007
Heightened Def Con from 1.07146e-007 to 1.07146e-007
Heightened Def Con from 1.07146e-007 to 1.07146e-007
Heightened Def Con from 1.07146e-007 to 1.07146e-007
Heightened Def Con from 1.07146e-007 to 1.07146e-007
Heightened Def Con from 1.07146e-007 to 1.07146e-007
Heightened Def Con from 1.07146e-007 to 1.07146e-007
Heightened Def Con from 1.07146e-007 to 1.08146e-007
Heightened Def Con from 1.08147e-007 to 1.08147e-007
Heightened Def Con from 1.08147e-007 to 1.08147e-007
Heightened Def Con from 1.08147e-007 +to 1.08147e-007
Heightened Def Con from 1.08147e-007 to 1.08147e-007
Heightened Def Con from 1.08147e-007 +to 1.08147e-007
Heightened Def Con from 1.08147e-007 to 1.08147e-007
Heightened Def Con from 1.08147e-007 +to 1.08147e-007
Heightened Def Con from 1.08147e-007 to 1.08149e-007
Heightened Def Con from 1.08149e-007 to 1.08149e-007
Heightened Def Con from 1.08149e-007 to 1.0829e-007
Heightened Def Con from 1.0829e-007 to 1.0829e-007
Heightened Def Con from 1.0829e-007 to 1.0829e-007
Heightened Def Con from 1.0829e-007 +to 1.0829e-007
Heightened Def Con from 1.0829e-007 to 1.0829e-007
Heightened Def Con from 1.0829e-007 to 1.0829e-007
Heightened Def Con from 1.0829e-007 to 1.0829e-007
Heightened Def Con from 1.0829e-007 to 1.0829e-007
Heightened Def Con from 1.0829e-007 to 1.0829e-007
Heightened Def Con from 1.0829e-007 to 1.0829e-007
Heightened Def Con from 1.0829e-007 to 1.08291e-007
Heightened Def Con from 1.08291e-007 to 1.08291e-007
Heightened Def Con from 1.08291e-007 to 1.08291e-007
Heightened Def Con from 1.08291e-007 to 1.08291e-007
Heightened Def Con from 1.08291e-007 to 1.08291e-007
Heightened Def Con from 1.08291e-007 to 1.09291e-007
Heightened Def Con from 1.09291e-007 to 1.09291e-007
Heightened Def Con from 1.09291e-007 to 1.09291e-007
Heightened Def Con from 1.09291e-007 +to 1.09292e-007
Heightened Def Con from 1.09292e-007 to 1.09292e-007
Heightened Def Con from 1.09292e-007 +to 1.09292e-007
Heightened Def Con from 1.09292e-007 to 1.09293e-007
Heightened Def Con from 1.09293e-007 to 1.09293e-007
Heightened Def Con from 1.09293e-007 to 1.09293e-007
Heightened Def Con from 1.09293e-007 to 1.09293e-007
Heightened Def Con from 1.09293e-007 to 1.09295e-007
Heightened Def Con from 1.09295e-007 +to 1.09295e-007
Heightened Def Con from 1.09295e-007 to 1.09295e-007
Heightened Def Con from 1.09296e-007 to 1.09296e-007
Heightened Def Con from 1.09296e-007 to 1.09296e-007
Heightened Def Con from 1.09296e-007 to 1.09296e-007
Heightened Def Con from 1.09296e-007 to 1.09296e-007
Heightened Def Con from 1.09296e-007 +to 1.09296e-007
Heightened Def Con from 1.09296e-007 to 1.09296e-007
Heightened Def Con from 1.09297e-007 to 1.09297e-007
Heightened Def Con from 1.09297e-007 to 1.09297e-007
Heightened Def Con from 1.09297e-007 to 1.09297e-007
Heightened Def Con from 1.09297e-007 to 1.09297e-007
Heightened Def Con from 1.09297e-007 to 1.09297e-007
Heightened Def Con from 1.09297e-007 +to 1.09297e-007
Heightened Def Con from 1.09297e-007 +to 1.09297e-007
Heightened Def Con from 1.09297e-007 to 1.09297e-007
Heightened Def Con from 1.09297e-007 +to 1.09297e-007
Heightened Def Con from 1.09298e-007 +to 1.09298e-007
Heightened Def Con from 1.09298e-007 to 1.09298e-007
Heightened Def Con from 1.09298e-007 to 1.09298e-007
Heightened Def Con from 1.09298e-007 +to 1.09298e-007
Heightened Def Con from 1.09298e-007 to 1.09298e-007
Heightened Def Con from 1.09298e-007 +to 1.09298e-007
Heightened Def Con from 1.09299e-007 +to 1.09299e-007
Heightened Def Con from 1.09299e-007 to 1.09299e-007
Heightened Def Con from 1.09299e-007 to 1.09299e-007
Heightened Def Con from 1.09299e-007 to 1.09299e-007
Heightened Def Con from 1.09299e-007 to 1.09299e-007
Heightened Def Con from 1.09299e-007 to 1.09299e-007
Heightened Def Con from 1.09299e-007 +to 1.09299e-007
Heightened Def Con from 1.09299e-007 to 1.09299e-007
Heightened Def Con from 1.09299e-007 to 1.09299e-007
Heightened Def Con from 1.09299e-007 to 1.09299e-007
Heightened Def Con from 1.09299e-007 to 1.09299e-007
Heightened Def Con from 1.09299e-007 to 1.09299e-007
Heightened Def Con from 1.09299e-007 to 1.093e-007
Heightened Def Con from 1.093e-007 to 1.093e-007
Heightened Def Con from 1.093e-007 to 1.093e-007
Heightened Def Con from 1.093e-007 to 1.093e-007
Heightened Def Con from 1.093e-007 to 1.093e-007
Heightened Def Con from 1.093e-007 to 1.093e-007
Heightened Def Con from 1.093e-007 to 1.093e-007
Heightened Def Con from 1.093e-007 to 1.093e-007
Heightened Def Con from 1.093e-007 to 1.093e-007
Heightened Def Con from 1.093e-007 to 1.093e-007
Heightened Def Con from 1.093e-007 to 1.093e-007
Heightened Def Con from 1.093e-007 to 1.093e-007
Heightened Def Con from 1.093e-007 to 1.093e-007
Heightened Def Con from 1.093e-007 to 1.093e-007
Heightened Def Con from 1.09301e-007 to 1.09301e-007
Heightened Def Con from 1.09301e-007 to 1.09301e-007
Heightened Def Con from 1.09301e-007 to 1.09301e-007
Heightened Def Con from 1.09301e-007 to 1.09301e-007
Heightened Def Con from 1.09301e-007 to 1.09301e-007
Heightened Def Con from 1.09301e-007 to 1.09301e-007
Heightened Def Con from 1.09301e-007 to 1.09301e-007
Heightened Def Con from 1.09301e-007 to 1.09301e-007
Heightened Def Con from 1.09301e-007 to 1.09301e-007
Heightened Def Con from 1.09301e-007 to 1.09301e-007
Heightened Def Con from 1.09301e-007 to 1.09426e-007
Heightened Def Con from 1.09426e-007 ++to 1.09427e-007
Heightened Def Con from 1.09427e-007 to 1.09552e-007
Heightened Def Con from 1.09552e-007 to 1.09552e-007
Heightened Def Con from 1.09552e-007 to 1.09552e-007
Heightened Def Con from 1.09552e-007 to 1.09552e-007
Heightened Def Con from 1.09552e-007 to 1.09552e-007
Heightened Def Con from 1.09552e-007 to 1.09552e-007
Heightened Def Con from 1.09552e-007 to 1.09552e-007
Heightened Def Con from 1.09552e-007 to 1.09552e-007
Heightened Def Con from 1.09552e-007 to 1.09552e-007
Heightened Def Con from 1.09552e-007 to 1.09552e-007
Heightened Def Con from 1.09552e-007 to 1.09552e-007
Heightened Def Con from 1.09552e-007 to 1.09553e-007
Heightened Def Con from 1.09553e-007 to 1.09553e-007
Heightened Def Con from 1.09553e-007 to 1.09553e-007
Heightened Def Con from 1.09553e-007 to 1.09553e-007
Heightened Def Con from 1.09553e-007 to 1.09553e-007
Heightened Def Con from 1.09553e-007 to 1.09553e-007
Heightened Def Con from 1.09553e-007 to 1.09553e-007
Heightened Def Con from 1.09553e-007 +to 1.09553e-007
Heightened Def Con from 1.09553e-007 to 1.09553e-007
Heightened Def Con from 1.09553e-007 to 1.09553e-007
Heightened Def Con from 1.09553e-007 to 1.10553e-007
Heightened Def Con from 1.10553e-007 +to 1.10553e-007
Heightened Def Con from 1.10553e-007 to 1.10554e-007
Heightened Def Con from 1.10554e-007 to 1.10554e-007
Heightened Def Con from 1.10554e-007 to 1.10554e-007
Heightened Def Con from 1.10554e-007 to 1.10554e-007
Heightened Def Con from 1.10554e-007 to 1.10554e-007
Heightened Def Con from 1.10554e-007 to 1.10554e-007
Heightened Def Con from 1.10555e-007 to 1.10555e-007
Heightened Def Con from 1.10555e-007 to 1.10555e-007
Heightened Def Con from 1.10555e-007 to 1.10555e-007
Heightened Def Con from 1.10555e-007 to 1.10555e-007
Heightened Def Con from 1.10555e-007 to 1.10555e-007
Heightened Def Con from 1.10555e-007 to 1.10572e-007
Heightened Def Con from 1.10572e-007 to 1.10697e-007
Heightened Def Con from 1.10697e-007 +to 1.10697e-007
Heightened Def Con from 1.10698e-007 to 1.10698e-007
Heightened Def Con from 1.10698e-007 to 1.10698e-007
Heightened Def Con from 1.10698e-007 to 1.10698e-007
Heightened Def Con from 1.10698e-007 to 1.10698e-007
Heightened Def Con from 1.10698e-007 +to 1.10698e-007
Heightened Def Con from 1.10698e-007 to 1.10698e-007
Heightened Def Con from 1.10698e-007 +to 1.10699e-007
Heightened Def Con from 1.10699e-007 to 1.10699e-007
Heightened Def Con from 1.10699e-007 to 1.10699e-007
Heightened Def Con from 1.10699e-007 to 1.10699e-007
Heightened Def Con from 1.10699e-007 to 1.10699e-007
Heightened Def Con from 1.10699e-007 to 1.10699e-007
Heightened Def Con from 1.10699e-007 +to 1.10699e-007
Heightened Def Con from 1.10699e-007 to 1.10699e-007
Heightened Def Con from 1.10699e-007 to 1.10824e-007
Heightened Def Con from 1.10824e-007 to 1.10824e-007
Heightened Def Con from 1.10824e-007 to 1.10824e-007
Heightened Def Con from 1.10824e-007 to 1.10824e-007
Heightened Def Con from 1.10824e-007 to 1.1084e-007
Heightened Def Con from 1.1084e-007 to 1.1084e-007
Heightened Def Con from 1.1084e-007 to 1.10842e-007
Heightened Def Con from 1.10842e-007 +to 1.10842e-007
Heightened Def Con from 1.10842e-007 to 1.10842e-007
Heightened Def Con from 1.10842e-007 +to 1.10842e-007
Heightened Def Con from 1.10842e-007 to 1.10843e-007
Heightened Def Con from 1.10843e-007 to 1.10843e-007
Heightened Def Con from 1.10843e-007 to 1.10843e-007
Heightened Def Con from 1.10843e-007 to 1.10843e-007
Heightened Def Con from 1.10843e-007 to 1.10844e-007
Heightened Def Con from 1.10844e-007 to 1.10844e-007
Heightened Def Con from 1.10844e-007 to 1.10846e-007
Heightened Def Con from 1.10846e-007 to 1.10846e-007
Heightened Def Con from 1.10846e-007 to 1.10846e-007
Heightened Def Con from 1.10846e-007 to 1.10846e-007
Heightened Def Con from 1.10846e-007 to 1.10846e-007
Heightened Def Con from 1.10846e-007 to 1.10846e-007
Heightened Def Con from 1.10846e-007 to 1.10862e-007
Heightened Def Con from 1.10862e-007 to 1.10862e-007
Heightened Def Con from 1.10862e-007 to 1.10862e-007
Heightened Def Con from 1.10862e-007 to 1.10862e-007
Heightened Def Con from 1.10862e-007 to 1.10862e-007
Heightened Def Con from 1.10862e-007 to 1.10862e-007
Heightened Def Con from 1.10862e-007 to 1.10862e-007
Heightened Def Con from 1.10862e-007 to 1.10863e-007
Heightened Def Con from 1.10863e-007 to 1.10863e-007
Heightened Def Con from 1.10863e-007 to 1.10863e-007
Heightened Def Con from 1.10863e-007 to 1.10863e-007
Heightened Def Con from 1.10863e-007 +to 1.10863e-007
Heightened Def Con from 1.10863e-007 to 1.10864e-007
Heightened Def Con from 1.10864e-007 to 1.10864e-007
Heightened Def Con from 1.10864e-007 to 1.10864e-007
Heightened Def Con from 1.10864e-007 to 1.10864e-007
Heightened Def Con from 1.10864e-007 to 1.10864e-007
Heightened Def Con from 1.10865e-007 to 1.10865e-007
Heightened Def Con from 1.10865e-007 to 1.10865e-007
Heightened Def Con from 1.10865e-007 to 1.10865e-007
Heightened Def Con from 1.10865e-007 +to 1.10865e-007
Heightened Def Con from 1.10865e-007 to 1.10866e-007
Heightened Def Con from 1.10866e-007 to 1.10866e-007
Heightened Def Con from 1.10866e-007 to 1.10866e-007
Heightened Def Con from 1.10866e-007 to 1.10866e-007
Heightened Def Con from 1.10866e-007 to 1.10866e-007
Heightened Def Con from 1.10866e-007 to 1.10866e-007
Heightened Def Con from 1.10866e-007 to 1.10866e-007
Heightened Def Con from 1.10866e-007 to 1.10866e-007
Heightened Def Con from 1.10867e-007 to 1.10867e-007
Heightened Def Con from 1.10867e-007 to 1.10867e-007
Heightened Def Con from 1.10867e-007 to 1.10867e-007
Heightened Def Con from 1.10867e-007 to 1.10867e-007
Heightened Def Con from 1.10867e-007 ++to 1.10868e-007
Heightened Def Con from 1.10868e-007 to 1.10868e-007
Heightened Def Con from 1.10868e-007 to 1.10868e-007
Heightened Def Con from 1.10868e-007 to 1.10868e-007
Heightened Def Con from 1.10868e-007 +to 1.10868e-007
Heightened Def Con from 1.10869e-007 to 1.10869e-007
Heightened Def Con from 1.10869e-007 to 1.10869e-007
Heightened Def Con from 1.10869e-007 +to 1.10869e-007
Heightened Def Con from 1.10869e-007 to 1.11869e-007
Heightened Def Con from 1.11869e-007 +to 1.11869e-007
Heightened Def Con from 1.11869e-007 +to 1.11994e-007
Heightened Def Con from 1.11994e-007 to 1.11994e-007
Heightened Def Con from 1.11994e-007 to 1.11994e-007
Heightened Def Con from 1.11995e-007 to 1.11995e-007
Heightened Def Con from 1.11995e-007 to 1.11995e-007
Heightened Def Con from 1.11995e-007 to 1.11995e-007
Heightened Def Con from 1.11995e-007 to 1.11995e-007
Heightened Def Con from 1.11995e-007 to 1.11995e-007
Heightened Def Con from 1.11995e-007 to 1.11996e-007
Heightened Def Con from 1.11996e-007 to 1.11996e-007
Heightened Def Con from 1.11996e-007 to 1.11996e-007
Heightened Def Con from 1.11996e-007 to 1.11996e-007
Heightened Def Con from 1.11996e-007 to 1.11996e-007
Heightened Def Con from 1.11996e-007 to 1.11997e-007
Heightened Def Con from 1.11997e-007 to 1.11997e-007
Heightened Def Con from 1.11997e-007 +to 1.11997e-007
Heightened Def Con from 1.11998e-007 to 1.11998e-007
Heightened Def Con from 1.11998e-007 to 1.11998e-007
Heightened Def Con from 1.11998e-007 to 1.11998e-007
Heightened Def Con from 1.11998e-007 +to 1.11998e-007
Heightened Def Con from 1.11998e-007 to 1.11998e-007
Heightened Def Con from 1.11998e-007 to 1.11998e-007
Heightened Def Con from 1.11998e-007 +to 1.11998e-007
Heightened Def Con from 1.11998e-007 to 1.11998e-007
Heightened Def Con from 1.11998e-007 to 1.11998e-007
Heightened Def Con from 1.11998e-007 to 1.11998e-007
Heightened Def Con from 1.11998e-007 to 1.11998e-007
Heightened Def Con from 1.11998e-007 to 1.11998e-007
Heightened Def Con from 1.11998e-007 +to 1.12e-007
Heightened Def Con from 1.12e-007 to 1.12125e-007
Heightened Def Con from 1.12125e-007 +to 1.12125e-007
Heightened Def Con from 1.12126e-007 +to 1.12126e-007
Heightened Def Con from 1.12126e-007 +to 1.13126e-007
Heightened Def Con from 1.13126e-007 to 1.13126e-007
Heightened Def Con from 1.13126e-007 to 1.13126e-007
Heightened Def Con from 1.13126e-007 to 1.13126e-007
Heightened Def Con from 1.13126e-007 to 1.13126e-007
Heightened Def Con from 1.13126e-007 to 1.13127e-007
Heightened Def Con from 1.13127e-007 to 1.13127e-007
Heightened Def Con from 1.13127e-007 to 1.13127e-007
Heightened Def Con from 1.13127e-007 to 1.13252e-007
Heightened Def Con from 1.13252e-007 to 1.13252e-007
Heightened Def Con from 1.13252e-007 to 1.13252e-007
Heightened Def Con from 1.13252e-007 to 1.13252e-007
Heightened Def Con from 1.13252e-007 to 1.13252e-007
Heightened Def Con from 1.13252e-007 to 1.13252e-007
Heightened Def Con from 1.13252e-007 to 1.13252e-007
Heightened Def Con from 1.13252e-007 +to 1.13252e-007
Heightened Def Con from 1.13252e-007 to 1.13254e-007
Heightened Def Con from 1.13254e-007 to 1.13254e-007
Heightened Def Con from 1.13254e-007 to 1.13254e-007
Heightened Def Con from 1.13254e-007 +to 1.13254e-007
Heightened Def Con from 1.13255e-007 to 1.13255e-007
Heightened Def Con from 1.13255e-007 to 1.13255e-007
Heightened Def Con from 1.13255e-007 to 1.13255e-007
Heightened Def Con from 1.13255e-007 to 1.13255e-007
Heightened Def Con from 1.13255e-007 to 1.13255e-007
Heightened Def Con from 1.13255e-007 +to 1.13255e-007
Heightened Def Con from 1.13255e-007 to 1.13255e-007
Heightened Def Con from 1.13255e-007 to 1.13255e-007
Heightened Def Con from 1.13255e-007 to 1.13255e-007
Heightened Def Con from 1.13255e-007 to 1.13255e-007
Heightened Def Con from 1.13255e-007 +to 1.13271e-007
Heightened Def Con from 1.13271e-007 to 1.13271e-007
Heightened Def Con from 1.13271e-007 to 1.13271e-007
Heightened Def Con from 1.13271e-007 to 1.13271e-007
Heightened Def Con from 1.13271e-007 to 1.13271e-007
Heightened Def Con from 1.13271e-007 to 1.13271e-007
Heightened Def Con from 1.13271e-007 to 1.13271e-007
Heightened Def Con from 1.13271e-007 +to 1.13271e-007
Heightened Def Con from 1.13271e-007 +to 1.13271e-007
Heightened Def Con from 1.13271e-007 to 1.13271e-007
Heightened Def Con from 1.13272e-007 to 1.13272e-007
Heightened Def Con from 1.13272e-007 to 1.13272e-007
Heightened Def Con from 1.13272e-007 to 1.14272e-007
Heightened Def Con from 1.14272e-007 to 1.14397e-007
Heightened Def Con from 1.14397e-007 to 1.14397e-007
Heightened Def Con from 1.14397e-007 to 1.14397e-007
Heightened Def Con from 1.14397e-007 to 1.14397e-007
Heightened Def Con from 1.14397e-007 to 1.14398e-007
Heightened Def Con from 1.14398e-007 to 1.14398e-007
Heightened Def Con from 1.14398e-007 to 1.14398e-007
Heightened Def Con from 1.14398e-007 to 1.14398e-007
Heightened Def Con from 1.14398e-007 to 1.14398e-007
Heightened Def Con from 1.14398e-007 to 1.14398e-007
Heightened Def Con from 1.14398e-007 to 1.14398e-007
Heightened Def Con from 1.14398e-007 to 1.14398e-007
Heightened Def Con from 1.14398e-007 to 1.14398e-007
Heightened Def Con from 1.14398e-007 to 1.14398e-007
Heightened Def Con from 1.14398e-007 to 1.14399e-007
Heightened Def Con from 1.14399e-007 to 1.14399e-007
Heightened Def Con from 1.14399e-007 to 1.14399e-007
Heightened Def Con from 1.14399e-007 to 1.14399e-007
Heightened Def Con from 1.14399e-007 to 1.14399e-007
Heightened Def Con from 1.14399e-007 to 1.14399e-007
Heightened Def Con from 1.14399e-007 to 1.14399e-007
Heightened Def Con from 1.14399e-007 to 1.14399e-007
Heightened Def Con from 1.14399e-007 to 1.144e-007
Heightened Def Con from 1.144e-007 to 1.144e-007
Heightened Def Con from 1.144e-007 to 1.144e-007
Heightened Def Con from 1.144e-007 to 1.144e-007
Heightened Def Con from 1.144e-007 to 1.144e-007
Heightened Def Con from 1.144e-007 to 1.14525e-007
Heightened Def Con from 1.14525e-007 +to 1.14526e-007
Heightened Def Con from 1.14526e-007 to 1.14526e-007
Heightened Def Con from 1.14526e-007 to 1.14526e-007
Heightened Def Con from 1.14526e-007 to 1.14526e-007
Heightened Def Con from 1.14526e-007 to 1.14526e-007
Heightened Def Con from 1.14526e-007 to 1.14526e-007
Heightened Def Con from 1.14526e-007 to 1.14651e-007
Heightened Def Con from 1.14651e-007 +to 1.14651e-007
Heightened Def Con from 1.14651e-007 to 1.14652e-007
Heightened Def Con from 1.14652e-007 +to 1.14652e-007
Heightened Def Con from 1.14652e-007 +to 1.14652e-007
Heightened Def Con from 1.14652e-007 to 1.14652e-007
Heightened Def Con from 1.14652e-007 to 1.14652e-007
Heightened Def Con from 1.14652e-007 to 1.14652e-007
Heightened Def Con from 1.14652e-007 to 1.14653e-007
Heightened Def Con from 1.14653e-007 +to 1.14653e-007
Heightened Def Con from 1.14653e-007 +to 1.14653e-007
Heightened Def Con from 1.14653e-007 to 1.14653e-007
Heightened Def Con from 1.14653e-007 to 1.14654e-007
Heightened Def Con from 1.14654e-007 to 1.14654e-007
Heightened Def Con from 1.14654e-007 to 1.14654e-007
Heightened Def Con from 1.14654e-007 to 1.14655e-007
Heightened Def Con from 1.14655e-007 to 1.14655e-007
Heightened Def Con from 1.14655e-007 to 1.14655e-007
Heightened Def Con from 1.14655e-007 to 1.14655e-007
Heightened Def Con from 1.14655e-007 to 1.14656e-007
Heightened Def Con from 1.14656e-007 to 1.14656e-007
Heightened Def Con from 1.14656e-007 to 1.14656e-007
Heightened Def Con from 1.14656e-007 to 1.14657e-007
Heightened Def Con from 1.14657e-007 to 1.14657e-007
Heightened Def Con from 1.14657e-007 +to 1.14657e-007
Heightened Def Con from 1.14657e-007 to 1.14657e-007
Heightened Def Con from 1.14657e-007 to 1.14657e-007
Heightened Def Con from 1.14657e-007 to 1.14657e-007
Heightened Def Con from 1.14657e-007 to 1.14657e-007
Heightened Def Con from 1.14658e-007 to 1.14658e-007
Heightened Def Con from 1.14658e-007 to 1.14658e-007
Heightened Def Con from 1.14658e-007 to 1.14658e-007
Heightened Def Con from 1.14658e-007 to 1.14658e-007
Heightened Def Con from 1.14658e-007 to 1.14658e-007
Heightened Def Con from 1.14658e-007 to 1.14658e-007
Heightened Def Con from 1.14658e-007 to 1.14658e-007
Heightened Def Con from 1.14658e-007 to 1.14659e-007
Heightened Def Con from 1.14659e-007 +to 1.15659e-007
Heightened Def Con from 1.15659e-007 to 1.15659e-007
Heightened Def Con from 1.15659e-007 to 1.15659e-007
Heightened Def Con from 1.15659e-007 to 1.15659e-007
Heightened Def Con from 1.15659e-007 to 1.15659e-007
Heightened Def Con from 1.15659e-007 to 1.15659e-007
Heightened Def Con from 1.15659e-007 to 1.15659e-007
Heightened Def Con from 1.15659e-007 +to 1.15659e-007
Heightened Def Con from 1.15659e-007 to 1.15659e-007
Heightened Def Con from 1.15659e-007 to 1.15659e-007
Heightened Def Con from 1.15659e-007 to 1.15659e-007
Heightened Def Con from 1.1566e-007 to 1.1566e-007
Heightened Def Con from 1.1566e-007 +to 1.15675e-007
Heightened Def Con from 1.15675e-007 to 1.15675e-007
Heightened Def Con from 1.15675e-007 to 1.15675e-007
Heightened Def Con from 1.15676e-007 to 1.15676e-007
Heightened Def Con from 1.15676e-007 to 1.15676e-007
Heightened Def Con from 1.15676e-007 +to 1.15676e-007
Heightened Def Con from 1.15676e-007 to 1.15676e-007
Heightened Def Con from 1.15676e-007 to 1.15676e-007
Heightened Def Con from 1.15676e-007 to 1.15676e-007
Heightened Def Con from 1.15676e-007 +to 1.15676e-007
Heightened Def Con from 1.15676e-007 to 1.15676e-007
Heightened Def Con from 1.15676e-007 to 1.15676e-007
Heightened Def Con from 1.15676e-007 to 1.15676e-007
Heightened Def Con from 1.15676e-007 to 1.15676e-007
Heightened Def Con from 1.15676e-007 +to 1.15676e-007
Heightened Def Con from 1.15676e-007 to 1.15676e-007
Heightened Def Con from 1.15676e-007 to 1.15676e-007
Heightened Def Con from 1.15676e-007 to 1.15676e-007
Heightened Def Con from 1.15676e-007 to 1.15676e-007
Heightened Def Con from 1.15676e-007 to 1.15676e-007
Heightened Def Con from 1.15676e-007 to 1.15676e-007
Heightened Def Con from 1.15676e-007 to 1.15676e-007
Heightened Def Con from 1.15676e-007 to 1.15676e-007
Heightened Def Con from 1.15676e-007 to 1.15676e-007
Heightened Def Con from 1.15676e-007 to 1.15677e-007
Heightened Def Con from 1.15677e-007 to 1.15677e-007
Heightened Def Con from 1.15677e-007 to 1.15677e-007
Heightened Def Con from 1.15677e-007 to 1.15677e-007
Heightened Def Con from 1.15677e-007 to 1.15677e-007
Heightened Def Con from 1.15677e-007 to 1.15677e-007
Heightened Def Con from 1.15677e-007 to 1.15677e-007
Heightened Def Con from 1.15677e-007 to 1.15677e-007
Heightened Def Con from 1.15677e-007 to 1.15677e-007
Heightened Def Con from 1.15677e-007 to 1.15677e-007
Heightened Def Con from 1.15677e-007 to 1.15678e-007
Heightened Def Con from 1.15678e-007 to 1.15678e-007
Heightened Def Con from 1.15678e-007 to 1.15678e-007
Heightened Def Con from 1.15678e-007 to 1.15678e-007
Heightened Def Con from 1.15678e-007 to 1.15678e-007
Heightened Def Con from 1.15678e-007 to 1.15679e-007
Heightened Def Con from 1.15679e-007 to 1.15679e-007
Heightened Def Con from 1.15679e-007 to 1.15679e-007
Heightened Def Con from 1.15679e-007 to 1.1568e-007
Heightened Def Con from 1.1568e-007 to 1.1568e-007
Heightened Def Con from 1.1568e-007 to 1.1568e-007
Heightened Def Con from 1.1568e-007 to 1.1568e-007
Heightened Def Con from 1.1568e-007 to 1.1568e-007
Heightened Def Con from 1.1568e-007 to 1.1568e-007
Heightened Def Con from 1.1568e-007 to 1.1568e-007
Heightened Def Con from 1.1568e-007 to 1.1568e-007
Heightened Def Con from 1.1568e-007 to 1.1568e-007
Heightened Def Con from 1.1568e-007 to 1.1568e-007
Heightened Def Con from 1.1568e-007 to 1.1568e-007
Heightened Def Con from 1.1568e-007 to 1.1568e-007
Heightened Def Con from 1.1568e-007 to 1.1568e-007
Heightened Def Con from 1.1568e-007 to 1.1568e-007
Heightened Def Con from 1.1568e-007 to 1.1568e-007
Heightened Def Con from 1.1568e-007 to 1.15681e-007
Heightened Def Con from 1.15681e-007 to 1.15681e-007
Heightened Def Con from 1.15681e-007 to 1.15681e-007
Heightened Def Con from 1.15681e-007 to 1.15681e-007
Heightened Def Con from 1.15681e-007 to 1.15681e-007
Heightened Def Con from 1.15681e-007 to 1.15806e-007
Heightened Def Con from 1.15806e-007 to 1.15806e-007
Heightened Def Con from 1.15806e-007 to 1.15806e-007
Heightened Def Con from 1.15806e-007 to 1.15806e-007
Heightened Def Con from 1.15807e-007 to 1.15807e-007
Heightened Def Con from 1.15807e-007 to 1.15807e-007
Heightened Def Con from 1.15807e-007 to 1.15807e-007
Heightened Def Con from 1.15807e-007 to 1.15807e-007
Heightened Def Con from 1.15807e-007 to 1.15807e-007
Heightened Def Con from 1.15807e-007 to 1.15932e-007
Heightened Def Con from 1.15932e-007 to 1.15932e-007
Heightened Def Con from 1.15932e-007 +to 1.15932e-007
Heightened Def Con from 1.15932e-007 to 1.15932e-007
Heightened Def Con from 1.15932e-007 +to 1.15932e-007
Heightened Def Con from 1.15932e-007 to 1.15932e-007
Heightened Def Con from 1.15932e-007 to 1.16057e-007
Heightened Def Con from 1.16057e-007 to 1.16057e-007
Heightened Def Con from 1.16057e-007 to 1.16057e-007
Heightened Def Con from 1.16057e-007 to 1.16057e-007
Heightened Def Con from 1.16057e-007 to 1.16057e-007
Heightened Def Con from 1.16057e-007 +to 1.16058e-007
Heightened Def Con from 1.16058e-007 to 1.16058e-007
Heightened Def Con from 1.16058e-007 to 1.16058e-007
Heightened Def Con from 1.16058e-007 to 1.16058e-007
Heightened Def Con from 1.16058e-007 +to 1.16058e-007
Heightened Def Con from 1.16058e-007 to 1.16058e-007
Heightened Def Con from 1.16058e-007 to 1.16058e-007
Heightened Def Con from 1.16058e-007 to 1.16058e-007
Heightened Def Con from 1.16059e-007 +to 1.16059e-007
Heightened Def Con from 1.16059e-007 to 1.16059e-007
Heightened Def Con from 1.16059e-007 to 1.16059e-007
Heightened Def Con from 1.16059e-007 to 1.16059e-007
Heightened Def Con from 1.16059e-007 to 1.16061e-007
Heightened Def Con from 1.16061e-007 to 1.16061e-007
Heightened Def Con from 1.16061e-007 to 1.16061e-007
Heightened Def Con from 1.16061e-007 to 1.16061e-007
Heightened Def Con from 1.16061e-007 +to 1.16063e-007
Heightened Def Con from 1.16063e-007 +to 1.16063e-007
Heightened Def Con from 1.16063e-007 to 1.16063e-007
Heightened Def Con from 1.16063e-007 to 1.16063e-007
Heightened Def Con from 1.16063e-007 +to 1.16063e-007
Heightened Def Con from 1.16063e-007 to 1.16079e-007
Heightened Def Con from 1.16079e-007 to 1.16079e-007
Heightened Def Con from 1.16079e-007 to 1.16079e-007
Heightened Def Con from 1.16079e-007 to 1.16079e-007
Heightened Def Con from 1.16079e-007 to 1.16079e-007
Heightened Def Con from 1.16079e-007 to 1.16079e-007
Heightened Def Con from 1.16079e-007 to 1.16079e-007
Heightened Def Con from 1.16079e-007 +to 1.16079e-007
Heightened Def Con from 1.16079e-007 to 1.16079e-007
Heightened Def Con from 1.16079e-007 to 1.1608e-007
Heightened Def Con from 1.1608e-007 to 1.1608e-007
Heightened Def Con from 1.1608e-007 to 1.1608e-007
Heightened Def Con from 1.1608e-007 to 1.1608e-007
Heightened Def Con from 1.1608e-007 to 1.1608e-007
Heightened Def Con from 1.1608e-007 to 1.1608e-007
Heightened Def Con from 1.1608e-007 to 1.16081e-007
Heightened Def Con from 1.16081e-007 to 1.16081e-007
Heightened Def Con from 1.16081e-007 to 1.16081e-007
Heightened Def Con from 1.16081e-007 to 1.16082e-007
Heightened Def Con from 1.16082e-007 to 1.16082e-007
Heightened Def Con from 1.16082e-007 to 1.16082e-007
Heightened Def Con from 1.16082e-007 to 1.16098e-007
Heightened Def Con from 1.16098e-007 to 1.16098e-007
Heightened Def Con from 1.16098e-007 +to 1.16098e-007
Heightened Def Con from 1.16098e-007 to 1.16098e-007
Heightened Def Con from 1.16098e-007 to 1.16098e-007
Heightened Def Con from 1.16098e-007 to 1.16098e-007
Heightened Def Con from 1.16098e-007 to 1.16098e-007
Heightened Def Con from 1.16098e-007 to 1.16098e-007
Heightened Def Con from 1.16098e-007 to 1.16098e-007
Heightened Def Con from 1.16098e-007 to 1.16098e-007
Heightened Def Con from 1.16099e-007 +to 1.16099e-007
Heightened Def Con from 1.16099e-007 to 1.16099e-007
Heightened Def Con from 1.16099e-007 +to 1.16099e-007
Heightened Def Con from 1.16099e-007 to 1.16099e-007
Heightened Def Con from 1.16099e-007 to 1.16099e-007
Heightened Def Con from 1.16099e-007 to 1.16099e-007
Heightened Def Con from 1.16099e-007 to 1.16099e-007
Heightened Def Con from 1.16099e-007 to 1.16099e-007
Heightened Def Con from 1.16099e-007 to 1.16099e-007
Heightened Def Con from 1.16099e-007 to 1.16099e-007
Heightened Def Con from 1.161e-007 to 1.161e-007
Heightened Def Con from 1.161e-007 to 1.161e-007
Heightened Def Con from 1.161e-007 to 1.161e-007
Heightened Def Con from 1.161e-007 to 1.161e-007
Heightened Def Con from 1.161e-007 to 1.161e-007
Heightened Def Con from 1.16101e-007 to 1.16101e-007
Heightened Def Con from 1.16101e-007 to 1.16101e-007
Heightened Def Con from 1.16101e-007 to 1.16101e-007
Heightened Def Con from 1.16101e-007 to 1.16103e-007
Heightened Def Con from 1.16103e-007 to 1.16103e-007
Heightened Def Con from 1.16103e-007 to 1.16103e-007
Heightened Def Con from 1.16103e-007 to 1.16103e-007
Heightened Def Con from 1.16103e-007 to 1.16103e-007
Heightened Def Con from 1.16103e-007 to 1.16103e-007
Heightened Def Con from 1.16103e-007 to 1.16104e-007
Heightened Def Con from 1.16104e-007 to 1.16104e-007
Heightened Def Con from 1.16104e-007 to 1.16104e-007
Heightened Def Con from 1.16104e-007 to 1.16104e-007
Heightened Def Con from 1.16104e-007 to 1.16104e-007
Heightened Def Con from 1.16104e-007 to 1.16104e-007
Heightened Def Con from 1.16104e-007 to 1.16104e-007
Heightened Def Con from 1.16104e-007 to 1.16105e-007
Heightened Def Con from 1.16105e-007 to 1.16105e-007
Heightened Def Con from 1.16105e-007 to 1.16105e-007
Heightened Def Con from 1.16105e-007 to 1.16105e-007
Heightened Def Con from 1.16105e-007 to 1.16105e-007
Heightened Def Con from 1.16105e-007 to 1.16105e-007
Heightened Def Con from 1.16105e-007 +to 1.16105e-007
Heightened Def Con from 1.16105e-007 to 1.16105e-007
Heightened Def Con from 1.16105e-007 to 1.16106e-007
Heightened Def Con from 1.16106e-007 to 1.16106e-007
Heightened Def Con from 1.16106e-007 to 1.16106e-007
Heightened Def Con from 1.16106e-007 to 1.16106e-007
Heightened Def Con from 1.16106e-007 to 1.16106e-007
Heightened Def Con from 1.16107e-007 to 1.16122e-007
Heightened Def Con from 1.16122e-007 +to 1.16122e-007
Heightened Def Con from 1.16122e-007 +to 1.16122e-007
Heightened Def Con from 1.16122e-007 to 1.16122e-007
Heightened Def Con from 1.16123e-007 to 1.16123e-007
Heightened Def Con from 1.16123e-007 to 1.16123e-007
Heightened Def Con from 1.16123e-007 to 1.16123e-007
Heightened Def Con from 1.16123e-007 to 1.16123e-007
Heightened Def Con from 1.16123e-007 to 1.16124e-007
Heightened Def Con from 1.16124e-007 +to 1.16124e-007
Heightened Def Con from 1.16124e-007 to 1.16124e-007
Heightened Def Con from 1.16124e-007 to 1.16124e-007
Heightened Def Con from 1.16124e-007 to 1.16124e-007
Heightened Def Con from 1.16124e-007 +to 1.16124e-007
Heightened Def Con from 1.16124e-007 to 1.16124e-007
Heightened Def Con from 1.16124e-007 to 1.16124e-007
Heightened Def Con from 1.16124e-007 to 1.16124e-007
Heightened Def Con from 1.16125e-007 to 1.16125e-007
Heightened Def Con from 1.16125e-007 to 1.16125e-007
Heightened Def Con from 1.16125e-007 to 1.16125e-007
Heightened Def Con from 1.16125e-007 to 1.16125e-007
Heightened Def Con from 1.16126e-007 +to 1.16126e-007
Heightened Def Con from 1.16126e-007 to 1.16126e-007
Heightened Def Con from 1.16126e-007 to 1.16126e-007
Heightened Def Con from 1.16126e-007 to 1.16127e-007
Heightened Def Con from 1.16127e-007 to 1.16127e-007
Heightened Def Con from 1.16127e-007 +to 1.16127e-007
Heightened Def Con from 1.16127e-007 to 1.16252e-007
Heightened Def Con from 1.16252e-007 +to 1.16252e-007
Heightened Def Con from 1.16252e-007 to 1.16252e-007
Heightened Def Con from 1.16252e-007 to 1.16252e-007
Heightened Def Con from 1.16252e-007 +to 1.16252e-007
Heightened Def Con from 1.16252e-007 to 1.16252e-007
Heightened Def Con from 1.16252e-007 to 1.16252e-007
Heightened Def Con from 1.16252e-007 to 1.16252e-007
Heightened Def Con from 1.16252e-007 to 1.16253e-007
Heightened Def Con from 1.16253e-007 to 1.16253e-007
Heightened Def Con from 1.16253e-007 to 1.16253e-007
Heightened Def Con from 1.16253e-007 to 1.16253e-007
Heightened Def Con from 1.16253e-007 to 1.16253e-007
Heightened Def Con from 1.16253e-007 to 1.16253e-007
Heightened Def Con from 1.16253e-007 to 1.16253e-007
Heightened Def Con from 1.16253e-007 to 1.16253e-007
Heightened Def Con from 1.16253e-007 to 1.16254e-007
Heightened Def Con from 1.16254e-007 to 1.16254e-007
Heightened Def Con from 1.16254e-007 to 1.16254e-007
Heightened Def Con from 1.16254e-007 to 1.16254e-007
Heightened Def Con from 1.16254e-007 to 1.16254e-007
Heightened Def Con from 1.16254e-007 to 1.16254e-007
Heightened Def Con from 1.16254e-007 to 1.16254e-007
Heightened Def Con from 1.16255e-007 to 1.16255e-007
Heightened Def Con from 1.16255e-007 to 1.16255e-007
Heightened Def Con from 1.16255e-007 to 1.16255e-007
Heightened Def Con from 1.16255e-007 to 1.16255e-007
Heightened Def Con from 1.16255e-007 to 1.16255e-007
Heightened Def Con from 1.16255e-007 to 1.16255e-007
Heightened Def Con from 1.16255e-007 to 1.16255e-007
Heightened Def Con from 1.16255e-007 to 1.16255e-007
Heightened Def Con from 1.16256e-007 to 1.16256e-007
Heightened Def Con from 1.16256e-007 to 1.16256e-007
Heightened Def Con from 1.16256e-007 to 1.16256e-007
Heightened Def Con from 1.16256e-007 to 1.16256e-007
Heightened Def Con from 1.16256e-007 to 1.16256e-007
Heightened Def Con from 1.16256e-007 to 1.16256e-007
Heightened Def Con from 1.16256e-007 to 1.16257e-007
Heightened Def Con from 1.16257e-007 to 1.16259e-007
Heightened Def Con from 1.16259e-007 to 1.16259e-007
Heightened Def Con from 1.16259e-007 to 1.16259e-007
Heightened Def Con from 1.16259e-007 to 1.16259e-007
Heightened Def Con from 1.1626e-007 to 1.1626e-007
Heightened Def Con from 1.1626e-007 to 1.16275e-007
Heightened Def Con from 1.16276e-007 +to 1.16276e-007
Heightened Def Con from 1.16276e-007 to 1.16276e-007
Heightened Def Con from 1.16276e-007 to 1.16276e-007
Heightened Def Con from 1.16276e-007 to 1.16276e-007
Heightened Def Con from 1.16276e-007 +to 1.16276e-007
Heightened Def Con from 1.16277e-007 to 1.16277e-007
Heightened Def Con from 1.16277e-007 to 1.16277e-007
Heightened Def Con from 1.16277e-007 +to 1.16277e-007
Heightened Def Con from 1.16277e-007 to 1.16277e-007
Heightened Def Con from 1.16277e-007 to 1.16277e-007
Heightened Def Con from 1.16278e-007 to 1.16278e-007
Heightened Def Con from 1.16278e-007 to 1.16278e-007
Heightened Def Con from 1.16278e-007 +to 1.16278e-007
Heightened Def Con from 1.16278e-007 to 1.16278e-007
Heightened Def Con from 1.16278e-007 +to 1.16278e-007
Heightened Def Con from 1.16278e-007 to 1.16278e-007
Heightened Def Con from 1.16279e-007 to 1.16279e-007
Heightened Def Con from 1.16279e-007 to 1.16279e-007
Heightened Def Con from 1.16279e-007 to 1.16279e-007
Heightened Def Con from 1.16279e-007 to 1.16279e-007
Heightened Def Con from 1.16279e-007 to 1.16279e-007
Heightened Def Con from 1.1628e-007 to 1.1628e-007
Heightened Def Con from 1.1628e-007 to 1.1628e-007
Heightened Def Con from 1.1628e-007 to 1.1628e-007
Heightened Def Con from 1.1628e-007 +to 1.1628e-007
Heightened Def Con from 1.1628e-007 +to 1.1728e-007
Heightened Def Con from 1.17281e-007 to 1.17281e-007
Heightened Def Con from 1.17281e-007 to 1.17281e-007
Heightened Def Con from 1.17281e-007 to 1.17281e-007
Heightened Def Con from 1.17281e-007 to 1.17281e-007
Heightened Def Con from 1.17281e-007 to 1.17281e-007
Heightened Def Con from 1.17281e-007 to 1.17282e-007
Heightened Def Con from 1.17282e-007 to 1.17282e-007
Heightened Def Con from 1.17282e-007 to 1.17282e-007
Heightened Def Con from 1.17282e-007 +to 1.17282e-007
Heightened Def Con from 1.17282e-007 ++to 1.17283e-007
Heightened Def Con from 1.17283e-007 to 1.17283e-007
Heightened Def Con from 1.17283e-007 to 1.17284e-007
Heightened Def Con from 1.17284e-007 to 1.17284e-007
Heightened Def Con from 1.17284e-007 +to 1.17284e-007
Heightened Def Con from 1.17284e-007 +to 1.17284e-007
Heightened Def Con from 1.17284e-007 to 1.17284e-007
Heightened Def Con from 1.17284e-007 to 1.17284e-007
Heightened Def Con from 1.17284e-007 to 1.17284e-007
Heightened Def Con from 1.17284e-007 to 1.17285e-007
Heightened Def Con from 1.17285e-007 to 1.17285e-007
Heightened Def Con from 1.17285e-007 to 1.17285e-007
Heightened Def Con from 1.17285e-007 to 1.17285e-007
Heightened Def Con from 1.17285e-007 to 1.17285e-007
Heightened Def Con from 1.17286e-007 to 1.17286e-007
Heightened Def Con from 1.17286e-007 to 1.17286e-007
Heightened Def Con from 1.17286e-007 to 1.17286e-007
Heightened Def Con from 1.17286e-007 to 1.17286e-007
Heightened Def Con from 1.17286e-007 to 1.17286e-007
[...]
Heightened Def Con from 8.47872e-007 to 8.47872e-007
Heightened Def Con from 8.47872e-007 to 8.47872e-007
Heightened Def Con from 8.47872e-007 to 8.47872e-007
Heightened Def Con from 8.47872e-007 to 8.47872e-007
Heightened Def Con from 8.47872e-007 to 8.47888e-007
Heightened Def Con from 8.47888e-007 to 8.47904e-007
Heightened Def Con from 8.47904e-007 to 8.47904e-007
Heightened Def Con from 8.47904e-007 to 8.47904e-007
Heightened Def Con from 8.47904e-007 to 8.47904e-007
Heightened Def Con from 8.47904e-007 to 8.47904e-007
Heightened Def Con from 8.47904e-007 to 8.47904e-007
Heightened Def Con from 8.47904e-007 to 8.47904e-007
Heightened Def Con from 8.47904e-007 to 8.47904e-007
Heightened Def Con from 8.47904e-007 to 8.47904e-007
Heightened Def Con from 8.47904e-007 to 8.47904e-007
Heightened Def Con from 8.47905e-007 to 8.47905e-007
Heightened Def Con from 8.47905e-007 to 8.47905e-007
Heightened Def Con from 8.47905e-007 to 8.47907e-007
Heightened Def Con from 8.47907e-007 to 8.47907e-007
Heightened Def Con from 8.47907e-007 to 8.47907e-007
Heightened Def Con from 8.47907e-007 to 8.47907e-007
Heightened Def Con from 8.47907e-007 to 8.47908e-007
Heightened Def Con from 8.47908e-007 to 8.47908e-007
Heightened Def Con from 8.47908e-007 to 8.47908e-007
Heightened Def Con from 8.47908e-007 to 8.47908e-007
Heightened Def Con from 8.47908e-007 to 8.47908e-007
Heightened Def Con from 8.47908e-007 to 8.47908e-007
Heightened Def Con from 8.47908e-007 to 8.47908e-007
Heightened Def Con from 8.47908e-007 to 8.4791e-007
Heightened Def Con from 8.47911e-007 to 8.47911e-007
Heightened Def Con from 8.47911e-007 +to 8.47911e-007
Heightened Def Con from 8.47911e-007 to 8.47911e-007
Heightened Def Con from 8.47911e-007 to 8.47911e-007
Heightened Def Con from 8.47911e-007 +to 8.47911e-007
Heightened Def Con from 8.47911e-007 to 8.47911e-007
Heightened Def Con from 8.47911e-007 to 8.47911e-007
Heightened Def Con from 8.47911e-007 +to 8.47911e-007
Heightened Def Con from 8.47911e-007 to 8.47911e-007
Heightened Def Con from 8.47911e-007 to 8.47911e-007
Heightened Def Con from 8.47911e-007 to 8.47912e-007
Heightened Def Con from 8.47912e-007 to 8.47912e-007
Heightened Def Con from 8.47912e-007 to 8.47912e-007
Heightened Def Con from 8.47912e-007 to 8.47912e-007
Heightened Def Con from 8.47912e-007 to 8.47912e-007
Heightened Def Con from 8.47912e-007 to 8.47912e-007
Heightened Def Con from 8.47912e-007 to 8.47912e-007
Heightened Def Con from 8.47912e-007 +to 8.47912e-007
Heightened Def Con from 8.47913e-007 to 8.47913e-007
Heightened Def Con from 8.47913e-007 to 8.47913e-007
Heightened Def Con from 8.47913e-007 to 8.47913e-007
Heightened Def Con from 8.47913e-007 to 8.47913e-007
Heightened Def Con from 8.47913e-007 to 8.47913e-007
Heightened Def Con from 8.47913e-007 +to 8.48038e-007
Heightened Def Con from 8.48038e-007 to 8.48038e-007
Heightened Def Con from 8.48038e-007 +to 8.48038e-007
Heightened Def Con from 8.48038e-007 to 8.48038e-007
Heightened Def Con from 8.48038e-007 to 8.48038e-007
Heightened Def Con from 8.48038e-007 ++to 8.48039e-007
Heightened Def Con from 8.48039e-007 to 8.48039e-007
Heightened Def Con from 8.48039e-007 to 8.48039e-007
Heightened Def Con from 8.48039e-007 to 8.48039e-007
Heightened Def Con from 8.48039e-007 to 8.48039e-007
Heightened Def Con from 8.48039e-007 to 8.48039e-007
Heightened Def Con from 8.48039e-007 to 8.48039e-007
Heightened Def Con from 8.48039e-007 to 8.48039e-007
Heightened Def Con from 8.48039e-007 +to 8.4804e-007
Heightened Def Con from 8.4804e-007 to 8.4804e-007
Heightened Def Con from 8.4804e-007 to 8.4804e-007
Heightened Def Con from 8.4804e-007 to 8.4804e-007
Heightened Def Con from 8.4804e-007 to 8.4804e-007
Heightened Def Con from 8.4804e-007 to 8.4804e-007
Heightened Def Con from 8.4804e-007 to 8.4804e-007
Heightened Def Con from 8.4804e-007 to 8.4804e-007
Heightened Def Con from 8.4804e-007 +to 8.48041e-007
Heightened Def Con from 8.48041e-007 to 8.48041e-007
Heightened Def Con from 8.48041e-007 to 8.48041e-007
Heightened Def Con from 8.48041e-007 to 8.48041e-007
Heightened Def Con from 8.48041e-007 to 8.48042e-007
Heightened Def Con from 8.48042e-007 to 8.48042e-007
Heightened Def Con from 8.48042e-007 +to 8.48042e-007
Heightened Def Con from 8.48042e-007 to 8.48042e-007
Heightened Def Con from 8.48042e-007 to 8.48042e-007
Heightened Def Con from 8.48042e-007 to 8.48042e-007
Heightened Def Con from 8.48042e-007 to 8.48042e-007
Heightened Def Con from 8.48042e-007 to 8.48042e-007
Heightened Def Con from 8.48042e-007 to 8.48042e-007
Heightened Def Con from 8.48042e-007 to 8.48043e-007
Heightened Def Con from 8.48043e-007 to 8.48043e-007
Heightened Def Con from 8.48043e-007 to 8.48043e-007
Heightened Def Con from 8.48043e-007 to 8.48043e-007
Heightened Def Con from 8.48043e-007 to 8.48044e-007
Heightened Def Con from 8.48044e-007 to 8.48044e-007
Heightened Def Con from 8.48044e-007 to 8.48044e-007
Heightened Def Con from 8.48044e-007 to 8.48044e-007
Heightened Def Con from 8.48044e-007 to 8.48044e-007
Heightened Def Con from 8.48045e-007 to 8.48045e-007
Heightened Def Con from 8.48045e-007 to 8.48045e-007
Heightened Def Con from 8.48045e-007 to 8.48045e-007
Heightened Def Con from 8.48045e-007 to 8.48045e-007
Heightened Def Con from 8.48045e-007 to 8.48045e-007
Heightened Def Con from 8.48045e-007 to 8.48047e-007
Heightened Def Con from 8.48047e-007 to 8.48047e-007
Heightened Def Con from 8.48047e-007 to 8.48047e-007
Heightened Def Con from 8.48047e-007 to 8.48047e-007
Heightened Def Con from 8.48047e-007 to 8.48047e-007
Heightened Def Con from 8.48047e-007 to 8.48047e-007
Heightened Def Con from 8.48047e-007 to 8.48048e-007
Heightened Def Con from 8.48048e-007 to 8.48048e-007
Heightened Def Con from 8.48048e-007 to 8.48048e-007
Heightened Def Con from 8.48048e-007 to 8.48048e-007
Heightened Def Con from 8.48048e-007 to 8.48048e-007
Heightened Def Con from 8.48048e-007 to 8.48064e-007
Heightened Def Con from 8.48064e-007 to 8.48064e-007
Heightened Def Con from 8.48064e-007 to 8.48064e-007
Heightened Def Con from 8.48064e-007 to 8.48064e-007
Heightened Def Con from 8.48064e-007 to 8.48064e-007
Heightened Def Con from 8.48064e-007 to 8.48065e-007
Heightened Def Con from 8.48065e-007 to 8.48065e-007
Heightened Def Con from 8.48065e-007 to 8.48065e-007
Heightened Def Con from 8.48065e-007 to 8.48065e-007
Heightened Def Con from 8.48065e-007 to 8.48066e-007
Heightened Def Con from 8.48066e-007 to 8.48066e-007
Heightened Def Con from 8.48066e-007 to 8.48066e-007
Heightened Def Con from 8.48066e-007 to 8.48066e-007
Heightened Def Con from 8.48066e-007 to 8.48066e-007
Heightened Def Con from 8.48066e-007 to 8.48067e-007
Heightened Def Con from 8.48067e-007 to 8.48067e-007
Heightened Def Con from 8.48067e-007 to 8.48067e-007
Heightened Def Con from 8.48067e-007 to 8.48067e-007
Heightened Def Con from 8.48067e-007 to 8.48067e-007
Heightened Def Con from 8.48067e-007 to 8.48071e-007
Heightened Def Con from 8.48071e-007 +to 8.48071e-007
Heightened Def Con from 8.48071e-007 to 8.48071e-007
Heightened Def Con from 8.48071e-007 to 8.48071e-007
Heightened Def Con from 8.48071e-007 to 8.48071e-007
Heightened Def Con from 8.48071e-007 ++to 8.48072e-007
Heightened Def Con from 8.48072e-007 to 8.48072e-007
Heightened Def Con from 8.48072e-007 to 8.48072e-007
Heightened Def Con from 8.48072e-007 to 8.48072e-007
Heightened Def Con from 8.48072e-007 to 8.48072e-007
Heightened Def Con from 8.48072e-007 to 8.48072e-007
Heightened Def Con from 8.48072e-007 to 8.48072e-007
Heightened Def Con from 8.48072e-007 to 8.48072e-007
Heightened Def Con from 8.48073e-007 to 8.48073e-007
Heightened Def Con from 8.48073e-007 to 8.48073e-007
Heightened Def Con from 8.48073e-007 to 8.48089e-007
Heightened Def Con from 8.48089e-007 to 8.48089e-007
Heightened Def Con from 8.48089e-007 to 8.48089e-007
Heightened Def Con from 8.48089e-007 +to 8.48089e-007
Heightened Def Con from 8.48089e-007 to 8.48089e-007
Heightened Def Con from 8.48089e-007 to 8.48089e-007
Heightened Def Con from 8.48089e-007 to 8.48089e-007
Heightened Def Con from 8.48089e-007 to 8.48089e-007
Heightened Def Con from 8.48089e-007 to 8.48089e-007
Heightened Def Con from 8.48089e-007 to 8.4809e-007
Heightened Def Con from 8.4809e-007 to 8.4809e-007
Heightened Def Con from 8.4809e-007 to 8.4809e-007
Heightened Def Con from 8.4809e-007 to 8.4809e-007
Heightened Def Con from 8.4809e-007 to 8.4809e-007
Heightened Def Con from 8.4809e-007 to 8.4809e-007
Heightened Def Con from 8.4809e-007 to 8.4809e-007
Heightened Def Con from 8.48091e-007 to 8.48091e-007
Heightened Def Con from 8.48091e-007 to 8.48091e-007
Heightened Def Con from 8.48091e-007 to 8.48091e-007
Heightened Def Con from 8.48091e-007 +to 8.48092e-007
Heightened Def Con from 8.48092e-007 to 8.48092e-007
Heightened Def Con from 8.48092e-007 to 8.48092e-007
Heightened Def Con from 8.48092e-007 to 8.48092e-007
Heightened Def Con from 8.48092e-007 +to 8.48092e-007
Heightened Def Con from 8.48092e-007 to 8.48092e-007
Heightened Def Con from 8.48092e-007 to 8.48093e-007
Heightened Def Con from 8.48093e-007 to 8.48093e-007
Heightened Def Con from 8.48093e-007 to 8.48093e-007
Heightened Def Con from 8.48093e-007 to 8.48093e-007
Heightened Def Con from 8.48093e-007 to 8.48093e-007
Heightened Def Con from 8.48093e-007 to 8.48093e-007
Heightened Def Con from 8.48093e-007 to 8.48093e-007
Heightened Def Con from 8.48093e-007 to 8.48093e-007
Heightened Def Con from 8.48093e-007 to 8.48093e-007
Heightened Def Con from 8.48093e-007 to 8.48093e-007
Heightened Def Con from 8.48094e-007 to 8.48094e-007
Heightened Def Con from 8.48094e-007 to 8.48094e-007
Heightened Def Con from 8.48094e-007 to 8.48094e-007
Heightened Def Con from 8.48094e-007 to 8.48094e-007
Heightened Def Con from 8.48094e-007 to 8.48094e-007
Heightened Def Con from 8.48094e-007 +to 8.48095e-007
Heightened Def Con from 8.48095e-007 to 8.48095e-007
Heightened Def Con from 8.48095e-007 to 8.48095e-007
Heightened Def Con from 8.48095e-007 to 8.48096e-007
Heightened Def Con from 8.48096e-007 to 8.48096e-007
Heightened Def Con from 8.48096e-007 to 8.48096e-007
Heightened Def Con from 8.48096e-007 to 8.48096e-007
Heightened Def Con from 8.48096e-007 to 8.48096e-007
Heightened Def Con from 8.48096e-007 to 8.48098e-007
Heightened Def Con from 8.48099e-007 to 8.48099e-007
Heightened Def Con from 8.48099e-007 to 8.48099e-007
Heightened Def Con from 8.48099e-007 to 8.48099e-007
Heightened Def Con from 8.48099e-007 to 8.48099e-007
Heightened Def Con from 8.48099e-007 to 8.48099e-007
Heightened Def Con from 8.48099e-007 to 8.48099e-007
Heightened Def Con from 8.48099e-007 to 8.48099e-007
Heightened Def Con from 8.48099e-007 to 8.48099e-007
Heightened Def Con from 8.48099e-007 to 8.481e-007
Heightened Def Con from 8.481e-007 to 8.481e-007
Heightened Def Con from 8.481e-007 to 8.481e-007
Heightened Def Con from 8.481e-007 to 8.481e-007
Heightened Def Con from 8.481e-007 to 8.481e-007
Heightened Def Con from 8.48101e-007 to 8.48101e-007
Heightened Def Con from 8.48101e-007 to 8.48101e-007
Heightened Def Con from 8.48101e-007 +to 8.48101e-007
Heightened Def Con from 8.48101e-007 to 8.48101e-007
Heightened Def Con from 8.48101e-007 to 8.48101e-007
Heightened Def Con from 8.48101e-007 to 8.48101e-007
Heightened Def Con from 8.48101e-007 to 8.48101e-007
Heightened Def Con from 8.48101e-007 to 8.48101e-007
Heightened Def Con from 8.48101e-007 to 8.48101e-007
Heightened Def Con from 8.48101e-007 to 8.48101e-007
Heightened Def Con from 8.48101e-007 to 8.48101e-007
Heightened Def Con from 8.48101e-007 to 8.48101e-007
Heightened Def Con from 8.48101e-007 to 8.48101e-007
Heightened Def Con from 8.48102e-007 to 8.48102e-007
Heightened Def Con from 8.48102e-007 to 8.48102e-007
Heightened Def Con from 8.48102e-007 to 8.48102e-007
Heightened Def Con from 8.48102e-007 to 8.48103e-007
Heightened Def Con from 8.48103e-007 to 8.48103e-007
Heightened Def Con from 8.48103e-007 to 8.48103e-007
Heightened Def Con from 8.48103e-007 to 8.48103e-007
Heightened Def Con from 8.48103e-007 to 8.48103e-007
Heightened Def Con from 8.48103e-007 to 8.48103e-007
Heightened Def Con from 8.48103e-007 +to 8.48103e-007
Heightened Def Con from 8.48103e-007 to 8.48103e-007
Heightened Def Con from 8.48103e-007 to 8.48103e-007
Heightened Def Con from 8.48103e-007 to 8.48103e-007
Heightened Def Con from 8.48103e-007 to 8.48103e-007
Heightened Def Con from 8.48103e-007 to 8.48103e-007
Heightened Def Con from 8.48103e-007 to 8.48103e-007
Heightened Def Con from 8.48103e-007 to 8.48103e-007
Heightened Def Con from 8.48103e-007 to 8.48103e-007
Heightened Def Con from 8.48103e-007 to 8.48103e-007
Heightened Def Con from 8.48103e-007 +to 8.48103e-007
Heightened Def Con from 8.48103e-007 to 8.48103e-007
Heightened Def Con from 8.48103e-007 +to 8.48228e-007
Heightened Def Con from 8.48228e-007 to 8.48228e-007
Heightened Def Con from 8.48228e-007 to 8.48229e-007
Heightened Def Con from 8.48229e-007 +to 8.48229e-007
Heightened Def Con from 8.48229e-007 to 8.48229e-007
Heightened Def Con from 8.48229e-007 to 8.48229e-007
Heightened Def Con from 8.48229e-007 +to 8.48229e-007
Heightened Def Con from 8.48229e-007 to 8.48229e-007
Heightened Def Con from 8.4823e-007 to 8.4823e-007
Heightened Def Con from 8.4823e-007 to 8.4823e-007
Heightened Def Con from 8.4823e-007 to 8.4823e-007
Heightened Def Con from 8.4823e-007 to 8.4823e-007
Heightened Def Con from 8.4823e-007 +to 8.4823e-007
Heightened Def Con from 8.4823e-007 to 8.4823e-007
Heightened Def Con from 8.4823e-007 +to 8.4823e-007
Heightened Def Con from 8.4823e-007 to 8.4823e-007
Heightened Def Con from 8.4823e-007 to 8.4823e-007
Heightened Def Con from 8.4823e-007 to 8.4823e-007
Heightened Def Con from 8.4823e-007 to 8.4823e-007
Heightened Def Con from 8.4823e-007 to 8.4823e-007
Heightened Def Con from 8.48231e-007 +to 8.48232e-007
Heightened Def Con from 8.48232e-007 to 8.48232e-007
Heightened Def Con from 8.48232e-007 to 8.48232e-007
Heightened Def Con from 8.48232e-007 +to 8.48234e-007
Heightened Def Con from 8.48234e-007 to 8.48234e-007
Heightened Def Con from 8.48234e-007 to 8.48234e-007
Heightened Def Con from 8.48234e-007 to 8.48236e-007
Heightened Def Con from 8.48236e-007 to 8.48236e-007
Heightened Def Con from 8.48236e-007 to 8.48236e-007
Heightened Def Con from 8.48236e-007 to 8.48237e-007
Heightened Def Con from 8.48237e-007 to 8.48237e-007
Heightened Def Con from 8.48237e-007 to 8.48237e-007
Heightened Def Con from 8.48237e-007 to 8.48237e-007
Heightened Def Con from 8.48237e-007 to 8.48237e-007
Heightened Def Con from 8.48237e-007 to 8.48237e-007
Heightened Def Con from 8.48238e-007 to 8.48238e-007
Heightened Def Con from 8.48238e-007 to 8.48238e-007
Heightened Def Con from 8.48238e-007 to 8.48238e-007
Heightened Def Con from 8.48238e-007 to 8.48238e-007
Heightened Def Con from 8.48238e-007 to 8.48238e-007
Heightened Def Con from 8.48238e-007 to 8.48238e-007
Heightened Def Con from 8.48238e-007 to 8.48238e-007
Heightened Def Con from 8.48238e-007 to 8.48238e-007
Heightened Def Con from 8.48238e-007 to 8.48238e-007
Heightened Def Con from 8.48238e-007 +to 8.48238e-007
Heightened Def Con from 8.48238e-007 +to 8.48238e-007
Heightened Def Con from 8.48238e-007 to 8.48238e-007
Heightened Def Con from 8.48238e-007 to 8.48239e-007
Heightened Def Con from 8.4824e-007 to 8.4824e-007
Heightened Def Con from 8.4824e-007 to 8.48241e-007
Heightened Def Con from 8.48241e-007 to 8.48241e-007
Heightened Def Con from 8.48241e-007 to 8.48241e-007
Heightened Def Con from 8.48241e-007 to 8.48241e-007
Heightened Def Con from 8.48241e-007 +to 8.48241e-007
Heightened Def Con from 8.48241e-007 to 8.48241e-007
Heightened Def Con from 8.48242e-007 to 8.48242e-007
Heightened Def Con from 8.48242e-007 to 8.48242e-007
Heightened Def Con from 8.48242e-007 to 8.48242e-007
Heightened Def Con from 8.48242e-007 to 8.48242e-007
Heightened Def Con from 8.48243e-007 to 8.48243e-007
Heightened Def Con from 8.48243e-007 to 8.48243e-007
Heightened Def Con from 8.48243e-007 to 8.48243e-007
Heightened Def Con from 8.48243e-007 to 8.48243e-007
Heightened Def Con from 8.48243e-007 to 8.48243e-007
Heightened Def Con from 8.48243e-007 to 8.48243e-007
Heightened Def Con from 8.48243e-007 to 8.48259e-007
Heightened Def Con from 8.4826e-007 to 8.4826e-007
Heightened Def Con from 8.4826e-007 to 8.4826e-007
Heightened Def Con from 8.4826e-007 to 8.4826e-007
Heightened Def Con from 8.4826e-007 +to 8.4826e-007
Heightened Def Con from 8.4826e-007 to 8.4826e-007
Heightened Def Con from 8.4826e-007 to 8.48262e-007
Heightened Def Con from 8.48262e-007 to 8.48262e-007
Heightened Def Con from 8.48262e-007 to 8.48262e-007
Heightened Def Con from 8.48262e-007 to 8.48262e-007
Heightened Def Con from 8.48262e-007 to 8.48263e-007
Heightened Def Con from 8.48263e-007 to 8.48263e-007
Heightened Def Con from 8.48263e-007 to 8.48263e-007
Heightened Def Con from 8.48263e-007 to 8.48388e-007
Heightened Def Con from 8.48388e-007 to 8.48388e-007
Heightened Def Con from 8.48388e-007 +to 8.48388e-007
Heightened Def Con from 8.48388e-007 to 8.48388e-007
Heightened Def Con from 8.48388e-007 ++to 8.48388e-007
Heightened Def Con from 8.48389e-007 to 8.48514e-007
Heightened Def Con from 8.48514e-007 to 8.49514e-007
Heightened Def Con from 8.49514e-007 +to 8.49514e-007
Heightened Def Con from 8.49514e-007 to 8.49514e-007
Heightened Def Con from 8.49514e-007 to 8.49514e-007
Heightened Def Con from 8.49514e-007 to 8.49515e-007
Heightened Def Con from 8.49515e-007 to 8.49515e-007
Heightened Def Con from 8.49515e-007 to 8.49515e-007
Heightened Def Con from 8.49515e-007 to 8.49515e-007
Heightened Def Con from 8.49515e-007 to 8.49515e-007
Heightened Def Con from 8.49515e-007 to 8.49515e-007
Heightened Def Con from 8.49515e-007 to 8.49515e-007
Heightened Def Con from 8.49515e-007 to 8.49515e-007
Heightened Def Con from 8.49515e-007 to 8.49515e-007
Heightened Def Con from 8.49515e-007 +to 8.49515e-007
Heightened Def Con from 8.49515e-007 to 8.49517e-007
Heightened Def Con from 8.49517e-007 to 8.49517e-007
Heightened Def Con from 8.49517e-007 to 8.49517e-007
Heightened Def Con from 8.49517e-007 +to 8.49517e-007
Heightened Def Con from 8.49517e-007 to 8.49517e-007
Heightened Def Con from 8.49517e-007 to 8.49517e-007
Heightened Def Con from 8.49517e-007 ++to 8.49517e-007
Heightened Def Con from 8.49517e-007 to 8.49517e-007
Heightened Def Con from 8.49517e-007 to 8.49517e-007
Heightened Def Con from 8.49517e-007 +to 8.49533e-007
Heightened Def Con from 8.49533e-007 to 8.49533e-007
Heightened Def Con from 8.49533e-007 to 8.49533e-007
Heightened Def Con from 8.49533e-007 to 8.49533e-007
Heightened Def Con from 8.49533e-007 to 8.49533e-007
Heightened Def Con from 8.49533e-007 to 8.49533e-007
Heightened Def Con from 8.49533e-007 to 8.49534e-007
Heightened Def Con from 8.49534e-007 to 8.49534e-007
Heightened Def Con from 8.49534e-007 to 8.49534e-007
Heightened Def Con from 8.49534e-007 to 8.49534e-007
Heightened Def Con from 8.49534e-007 to 8.49534e-007
Heightened Def Con from 8.49534e-007 to 8.49534e-007
Heightened Def Con from 8.49534e-007 to 8.49536e-007
Heightened Def Con from 8.49536e-007 to 8.49537e-007
Heightened Def Con from 8.49537e-007 +to 8.49537e-007
Heightened Def Con from 8.49537e-007 to 8.49537e-007
Heightened Def Con from 8.49537e-007 +to 8.49537e-007
Heightened Def Con from 8.49538e-007 to 8.49538e-007
Heightened Def Con from 8.49538e-007 to 8.50538e-007
Heightened Def Con from 8.50538e-007 to 8.51538e-007
Heightened Def Con from 8.51538e-007 to 8.51539e-007
Heightened Def Con from 8.51539e-007 +to 8.51539e-007
Heightened Def Con from 8.51539e-007 to 8.51539e-007

Date: Sun May 14 18:30:43 2023
Total elapsed time: 73.661 seconds.

tnom = 27
temp = 27
method = modified trap
totiter = 11819107
traniter = 11819074
tranpoints = 1371172
accept = 556893
rejected = 876754
matrix size = 36
fillins = 35
solver = Normal
Matrix Compiler1: off  1.2/0.7/[0.4]
Matrix Compiler2: 3.34 KB object code size  0.5/0.7/[0.5]

